<?xml version="1.0" encoding="UTF-8"?>

<!-- generated on 2025-04-29 15:34:02.087030 by randomTrips.py UNKNOWN
<configuration>
    <net-file value="sumo/world_cross_1_tls_2_phases.net.xml"/>
    <route-file value="sumo/cross_world_debug_tester.rou.xml"/>
    <end value="8.0"/>
    <period value="1.0"/>
</configuration>
-->

<routes xmlns:xsi="http://www.w3.org/2001/XMLSchema-instance" xsi:noNamespaceSchemaLocation="http://sumo.dlr.de/xsd/routes_file.xsd">
    <trip id="0" depart="0.00" from="B2B1" to="B1A1"/>
    <trip id="1" depart="1.00" from="B0B1" to="B1A1"/>
    <trip id="2" depart="2.00" from="B2B1" to="B1B2"/>
    <trip id="3" depart="3.00" from="C1B1" to="B1A1"/>
    <trip id="4" depart="4.00" from="B0B1" to="B1A1"/>
    <trip id="5" depart="5.00" from="A1B1" to="B1B2"/>
    <trip id="6" depart="6.00" from="A1B1" to="B1A1"/>
    <trip id="7" depart="7.00" from="B2B1" to="B1B2"/>
</routes>
