<?xml version="1.0" encoding="UTF-8"?>

<!-- generated on 2025-03-31 21:25:04.246860 by randomTrips.py UNKNOWN
<configuration>
    <net-file value="sumo/sumo_network_spiral.net.xml"/>
    <route-file value="sumo/random_routes_spiral.rou.xml"/>
    <end value="500.0"/>
    <period value="1.0"/>
</configuration>
-->

<!-- generated on 2025-03-31 21:25:04 by Eclipse SUMO duarouter Version 1.18.0
<configuration xmlns:xsi="http://www.w3.org/2001/XMLSchema-instance" xsi:noNamespaceSchemaLocation="http://sumo.dlr.de/xsd/duarouterConfiguration.xsd">

    <input>
        <net-file value="sumo/sumo_network_spiral.net.xml"/>
        <route-files value="trips.trips.xml"/>
    </input>

    <output>
        <output-file value="sumo/random_routes_spiral.rou.xml"/>
        <alternatives-output value="NUL"/>
    </output>

    <time>
        <begin value="0.0"/>
        <end value="500.0"/>
    </time>

    <report>
        <no-warnings value="true"/>
        <ignore-errors value="true"/>
        <no-step-log value="true"/>
    </report>

</configuration>
-->

<routes xmlns:xsi="http://www.w3.org/2001/XMLSchema-instance" xsi:noNamespaceSchemaLocation="http://sumo.dlr.de/xsd/routes_file.xsd">
    <!-- Define Vehicle Type -->
    <vType id="car" accel="2.6" decel="4.5" sigma="0.5" length="5" minGap="2.5" maxSpeed="50"/>

    <!-- Define Routes (All Use the Same Edge Sequence) -->
    <route id="route" edges="E0 E1 E2 E3 E4 E5 E6 E7 E8"/>

    <!-- Vehicle Flow (Each Lane Gets Its Own Vehicles) -->
    <flow id="flow_lane0" type="car" route="route" begin="0" end="300" period="3" departLane="0"/>
    <flow id="flow_lane1" type="car" route="route" begin="0" end="300" period="3" departLane="1"/>
    <flow id="flow_lane2" type="car" route="route" begin="0" end="300" period="3" departLane="2"/>
</routes>
