<?xml version="1.0" encoding="UTF-8"?>

<!-- generated on 2025-03-25 13:52:06 by Eclipse SUMO netedit Version 1.18.0
<configuration xmlns:xsi="http://www.w3.org/2001/XMLSchema-instance" xsi:noNamespaceSchemaLocation="http://sumo.dlr.de/xsd/neteditConfiguration.xsd">

    <input>
        <sumo-net-file value="/home/nicklas/Documents/DAS_semester2/bio/swarm_project/sumo/sumo_simple_network.net.xml"/>
    </input>

    <output>
        <output-file value="/home/nicklas/Documents/DAS_semester2/bio/swarm_project/sumo/sumo_simple_network.net.xml"/>
    </output>

    <processing>
        <geometry.min-radius.fix.railways value="false"/>
        <geometry.max-grade.fix value="false"/>
        <offset.disable-normalization value="true"/>
        <lefthand value="0"/>
    </processing>

    <junctions>
        <no-turnarounds value="true"/>
        <junctions.corner-detail value="5"/>
        <junctions.limit-turn-speed value="5.50"/>
        <rectangular-lane-cut value="0"/>
    </junctions>

    <pedestrian>
        <walkingareas value="0"/>
    </pedestrian>

</configuration>
-->

<net version="1.16" junctionCornerDetail="5" limitTurnSpeed="5.50" xmlns:xsi="http://www.w3.org/2001/XMLSchema-instance" xsi:noNamespaceSchemaLocation="http://sumo.dlr.de/xsd/net_file.xsd">

    <location netOffset="0.00,0.00" convBoundary="-1.98,62.06,376.98,62.72" origBoundary="-10000000000.00,-10000000000.00,10000000000.00,10000000000.00" projParameter="!"/>

    <edge id=":J1_0" function="internal">
        <lane id=":J1_0_0" index="0" speed="13.89" length="0.30" shape="128.02,60.67 128.32,60.67"/>
    </edge>
    <edge id=":J2_0" function="internal">
        <lane id=":J2_0_0" index="0" speed="13.89" length="0.30" shape="208.12,60.68 208.41,60.68"/>
    </edge>
    <edge id=":J3_0" function="internal">
        <lane id=":J3_0_0" index="0" speed="13.89" length="0.30" shape="290.55,61.12 290.85,61.12"/>
    </edge>

    <edge id="E0" from="J0" to="J1" priority="-1">
        <lane id="E0_0" index="0" speed="13.89" length="130.00" shape="-1.98,60.46 128.02,60.67"/>
    </edge>
    <edge id="E1" from="J1" to="J2" priority="-1">
        <lane id="E1_0" index="0" speed="13.89" length="79.79" shape="128.32,60.67 208.12,60.68"/>
    </edge>
    <edge id="E2" from="J2" to="J3" priority="-1">
        <lane id="E2_0" index="0" speed="13.89" length="82.14" shape="208.41,60.68 290.55,61.12"/>
    </edge>
    <edge id="E3" from="J3" to="J4" priority="-1">
        <lane id="E3_0" index="0" speed="13.89" length="86.13" shape="290.85,61.12 376.98,60.88"/>
    </edge>

    <tlLogic id="J1" type="static" programID="0" offset="0">
        <phase duration="1"  state="G"/>
        <phase duration="3"  state="y"/>
        <phase duration="50" state="r"/>
    </tlLogic>
    <tlLogic id="J2" type="static" programID="0" offset="0">
        <phase duration="1"  state="G"/>
        <phase duration="3"  state="y"/>
        <phase duration="50" state="r"/>
    </tlLogic>
    <tlLogic id="J3" type="static" programID="0" offset="0">
        <phase duration="1"  state="G"/>
        <phase duration="3"  state="y"/>
        <phase duration="50" state="r"/>
    </tlLogic>

    <junction id="J0" type="dead_end" x="-1.98" y="62.06" incLanes="" intLanes="" shape="-1.98,62.06 -1.97,58.86"/>
    <junction id="J1" type="traffic_light" x="128.17" y="62.27" incLanes="E0_0" intLanes=":J1_0_0" shape="128.32,62.27 128.32,59.07 128.02,59.07 128.02,62.27">
        <request index="0" response="0" foes="0" cont="0"/>
    </junction>
    <junction id="J2" type="traffic_light" x="208.26" y="62.28" incLanes="E1_0" intLanes=":J2_0_0" shape="208.41,62.28 208.42,59.08 208.12,59.08 208.11,62.28">
        <request index="0" response="0" foes="0" cont="0"/>
    </junction>
    <junction id="J3" type="traffic_light" x="290.70" y="62.72" incLanes="E2_0" intLanes=":J3_0_0" shape="290.85,62.72 290.85,59.52 290.56,59.52 290.55,62.72">
        <request index="0" response="0" foes="0" cont="0"/>
    </junction>
    <junction id="J4" type="dead_end" x="376.98" y="62.48" incLanes="E3_0" intLanes="" shape="376.97,59.28 376.98,62.48"/>

    <connection from="E0" to="E1" fromLane="0" toLane="0" via=":J1_0_0" tl="J1" linkIndex="0" dir="s" state="O"/>
    <connection from="E1" to="E2" fromLane="0" toLane="0" via=":J2_0_0" tl="J2" linkIndex="0" dir="s" state="O"/>
    <connection from="E2" to="E3" fromLane="0" toLane="0" via=":J3_0_0" tl="J3" linkIndex="0" dir="s" state="O"/>

    <connection from=":J1_0" to="E1" fromLane="0" toLane="0" dir="s" state="M"/>
    <connection from=":J2_0" to="E2" fromLane="0" toLane="0" dir="s" state="M"/>
    <connection from=":J3_0" to="E3" fromLane="0" toLane="0" dir="s" state="M"/>

</net>
