<?xml version="1.0" encoding="UTF-8"?>

<!-- generated on 2025-03-25 21:25:33 by Eclipse SUMO netedit Version 1.18.0
<configuration xmlns:xsi="http://www.w3.org/2001/XMLSchema-instance" xsi:noNamespaceSchemaLocation="http://sumo.dlr.de/xsd/neteditConfiguration.xsd">

    <input>
        <sumo-net-file value="/home/nicklas/Documents/DAS_semester2/bio/swarm_project/sumo/sumo_network_spiral.net.xml"/>
    </input>

    <output>
        <output-file value="/home/nicklas/Documents/DAS_semester2/bio/swarm_project/sumo/sumo_network_spiral.net.xml"/>
    </output>

    <processing>
        <offset.disable-normalization value="true"/>
    </processing>

    <junctions>
        <no-turnarounds value="true"/>
    </junctions>

    <netedit>
        <new-network value="false"/>
    </netedit>

</configuration>
-->

<net version="1.16" junctionCornerDetail="5" limitTurnSpeed="5.50" xmlns:xsi="http://www.w3.org/2001/XMLSchema-instance" xsi:noNamespaceSchemaLocation="http://sumo.dlr.de/xsd/net_file.xsd">

    <location netOffset="0.00,0.00" convBoundary="12.20,45.95,146.41,130.89" origBoundary="10000000000.00,10000000000.00,-10000000000.00,-10000000000.00" projParameter="!"/>

    <edge id=":J1_0" function="internal">
        <lane id=":J1_0_0" index="0" speed="7.65" length="12.96" shape="146.41,38.01 149.93,38.51 152.44,40.02 153.93,42.54 154.41,46.07"/>
        <lane id=":J1_0_1" index="1" speed="6.08" length="7.78" shape="146.41,41.21 148.52,41.51 150.02,42.42 150.92,43.93 151.21,46.04"/>
        <lane id=":J1_0_2" index="2" speed="3.90" length="2.59" shape="146.41,44.41 147.11,44.51 147.61,44.81 147.91,45.31 148.01,46.02"/>
    </edge>
    <edge id=":J2_0" function="internal">
        <lane id=":J2_0_0" index="0" speed="7.66" length="12.80" shape="153.80,130.54 153.28,134.00 151.78,136.48 149.29,137.97 145.83,138.48"/>
        <lane id=":J2_0_1" index="1" speed="6.08" length="7.68" shape="150.60,130.51 150.29,132.59 149.39,134.08 147.90,134.97 145.82,135.28"/>
        <lane id=":J2_0_2" index="2" speed="3.90" length="2.56" shape="147.40,130.49 147.30,131.18 146.99,131.68 146.50,131.98 145.80,132.08"/>
    </edge>
    <edge id=":J3_0" function="internal">
        <lane id=":J3_0_0" index="0" speed="13.89" length="0.30" shape="79.17,138.72 78.87,138.72"/>
        <lane id=":J3_0_1" index="1" speed="13.89" length="0.30" shape="79.16,135.52 78.86,135.52"/>
        <lane id=":J3_0_2" index="2" speed="13.89" length="0.30" shape="79.15,132.32 78.85,132.32"/>
    </edge>
    <edge id=":J4_0" function="internal">
        <lane id=":J4_0_0" index="0" speed="7.66" length="12.93" shape="12.22,138.89 8.71,138.39 6.20,136.90 4.70,134.39 4.20,130.89"/>
        <lane id=":J4_0_1" index="1" speed="6.08" length="7.76" shape="12.21,135.69 10.11,135.39 8.60,134.49 7.70,132.99 7.40,130.89"/>
        <lane id=":J4_0_2" index="2" speed="3.90" length="2.59" shape="12.20,132.49 11.50,132.39 11.00,132.09 10.70,131.59 10.60,130.89"/>
    </edge>
    <edge id=":J5_0" function="internal">
        <lane id=":J5_0_0" index="0" speed="7.66" length="12.90" shape="4.20,72.79 4.70,69.29 6.20,66.79 8.70,65.29 12.20,64.79"/>
        <lane id=":J5_0_1" index="1" speed="6.08" length="7.74" shape="7.40,72.79 7.70,70.69 8.60,69.19 10.10,68.29 12.20,67.99"/>
        <lane id=":J5_0_2" index="2" speed="3.90" length="2.58" shape="10.60,72.79 10.70,72.09 11.00,71.59 11.50,71.29 12.20,71.19"/>
    </edge>
    <edge id=":J6_0" function="internal">
        <lane id=":J6_0_0" index="0" speed="13.89" length="0.30" shape="76.49,64.79 76.78,64.79"/>
        <lane id=":J6_0_1" index="1" speed="13.89" length="0.30" shape="76.49,67.99 76.79,67.99"/>
        <lane id=":J6_0_2" index="2" speed="13.89" length="0.30" shape="76.49,71.19 76.80,71.19"/>
    </edge>
    <edge id=":J7_0" function="internal">
        <lane id=":J7_0_0" index="0" speed="7.65" length="13.05" shape="122.66,64.63 126.21,65.12 128.73,66.64 130.22,69.17 130.69,72.72"/>
        <lane id=":J7_0_1" index="1" speed="6.08" length="7.83" shape="122.67,67.83 124.80,68.12 126.31,69.03 127.21,70.55 127.49,72.68"/>
        <lane id=":J7_0_2" index="2" speed="3.90" length="2.61" shape="122.68,71.03 123.39,71.13 123.90,71.43 124.20,71.94 124.29,72.65"/>
    </edge>
    <edge id=":J8_0" function="internal">
        <lane id=":J8_0_0" index="0" speed="7.66" length="12.79" shape="130.36,101.18 129.82,104.64 128.31,107.11 125.82,108.59 122.36,109.09"/>
        <lane id=":J8_0_1" index="1" speed="6.08" length="7.68" shape="127.16,101.14 126.83,103.22 125.93,104.70 124.43,105.59 122.36,105.89"/>
        <lane id=":J8_0_2" index="2" speed="3.90" length="2.56" shape="123.96,101.11 123.85,101.80 123.55,102.29 123.05,102.59 122.36,102.69"/>
    </edge>

    <edge id="E0" from="J0" to="J1" priority="-1">
        <lane id="E0_0" index="0" speed="13.89" length="106.70" shape="39.71,37.95 146.41,38.01"/>
        <lane id="E0_1" index="1" speed="13.89" length="106.70" shape="39.71,41.15 146.41,41.21"/>
        <lane id="E0_2" index="2" speed="13.89" length="106.70" shape="39.71,44.35 146.41,44.41"/>
    </edge>
    <edge id="E1" from="J1" to="J2" priority="-1">
        <lane id="E1_0" index="0" speed="13.89" length="84.47" shape="154.41,46.07 153.80,130.54"/>
        <lane id="E1_1" index="1" speed="13.89" length="84.47" shape="151.21,46.04 150.60,130.51"/>
        <lane id="E1_2" index="2" speed="13.89" length="84.47" shape="148.01,46.02 147.40,130.49"/>
    </edge>
    <edge id="E2" from="J2" to="J3" priority="-1">
        <lane id="E2_0" index="0" speed="13.89" length="66.66" shape="145.83,138.48 79.17,138.72"/>
        <lane id="E2_1" index="1" speed="13.89" length="66.66" shape="145.82,135.28 79.16,135.52"/>
        <lane id="E2_2" index="2" speed="13.89" length="66.66" shape="145.80,132.08 79.15,132.32"/>
    </edge>
    <edge id="E3" from="J3" to="J4" priority="-1">
        <lane id="E3_0" index="0" speed="13.89" length="66.65" shape="78.87,138.72 12.22,138.89"/>
        <lane id="E3_1" index="1" speed="13.89" length="66.65" shape="78.86,135.52 12.21,135.69"/>
        <lane id="E3_2" index="2" speed="13.89" length="66.65" shape="78.85,132.32 12.20,132.49"/>
    </edge>
    <edge id="E4" from="J4" to="J5" priority="-1">
        <lane id="E4_0" index="0" speed="13.89" length="58.09" shape="4.20,130.89 4.20,72.79"/>
        <lane id="E4_1" index="1" speed="13.89" length="58.09" shape="7.40,130.89 7.40,72.79"/>
        <lane id="E4_2" index="2" speed="13.89" length="58.09" shape="10.60,130.89 10.60,72.79"/>
    </edge>
    <edge id="E5" from="J5" to="J6" priority="-1">
        <lane id="E5_0" index="0" speed="13.89" length="64.30" shape="12.20,64.79 76.49,64.79"/>
        <lane id="E5_1" index="1" speed="13.89" length="64.30" shape="12.20,67.99 76.49,67.99"/>
        <lane id="E5_2" index="2" speed="13.89" length="64.30" shape="12.20,71.19 76.49,71.19"/>
    </edge>
    <edge id="E6" from="J6" to="J7" priority="-1">
        <lane id="E6_0" index="0" speed="13.89" length="45.88" shape="76.78,64.79 122.66,64.63"/>
        <lane id="E6_1" index="1" speed="13.89" length="45.88" shape="76.79,67.99 122.67,67.83"/>
        <lane id="E6_2" index="2" speed="13.89" length="45.88" shape="76.80,71.19 122.68,71.03"/>
    </edge>
    <edge id="E7" from="J7" to="J8" priority="-1">
        <lane id="E7_0" index="0" speed="13.89" length="28.46" shape="130.69,72.72 130.36,101.18"/>
        <lane id="E7_1" index="1" speed="13.89" length="28.46" shape="127.49,72.68 127.16,101.14"/>
        <lane id="E7_2" index="2" speed="13.89" length="28.46" shape="124.29,72.65 123.96,101.11"/>
    </edge>
    <edge id="E8" from="J8" to="J9" priority="-1">
        <lane id="E8_0" index="0" speed="13.89" length="46.88" shape="122.36,109.09 75.48,109.09"/>
        <lane id="E8_1" index="1" speed="13.89" length="46.88" shape="122.36,105.89 75.48,105.89"/>
        <lane id="E8_2" index="2" speed="13.89" length="46.88" shape="122.36,102.69 75.48,102.69"/>
    </edge>

    <tlLogic id="J1" type="static" programID="0" offset="0">
        <phase duration="1"  state="GGG"/>
        <phase duration="1"  state="yyy"/>
        <phase duration="1"  state="rrr"/>
    </tlLogic>
    <tlLogic id="J2" type="static" programID="0" offset="0">
        <phase duration="1"  state="GGG"/>
        <phase duration="1"  state="yyy"/>
        <phase duration="1"  state="rrr"/>
    </tlLogic>
    <tlLogic id="J3" type="static" programID="0" offset="0">
        <phase duration="1"  state="GGG"/>
        <phase duration="1"  state="yyy"/>
        <phase duration="1"  state="rrr"/>
    </tlLogic>
    <tlLogic id="J4" type="static" programID="0" offset="0">
        <phase duration="1"  state="GGG"/>
        <phase duration="1"  state="yyy"/>
        <phase duration="1"  state="rrr"/>
    </tlLogic>
    <tlLogic id="J5" type="static" programID="0" offset="0">
        <phase duration="1"  state="GGG"/>
        <phase duration="1"  state="yyy"/>
        <phase duration="1"  state="rrr"/>
    </tlLogic>
    <tlLogic id="J6" type="static" programID="0" offset="0">
        <phase duration="1"  state="GGG"/>
        <phase duration="1"  state="yyy"/>
        <phase duration="1"  state="rrr"/>
    </tlLogic>
    <tlLogic id="J7" type="static" programID="0" offset="0">
        <phase duration="1"  state="GGG"/>
        <phase duration="1"  state="yyy"/>
        <phase duration="1"  state="rrr"/>
    </tlLogic>
    <tlLogic id="J8" type="static" programID="0" offset="0">
        <phase duration="1"  state="GGG"/>
        <phase duration="1"  state="yyy"/>
        <phase duration="1"  state="rrr"/>
    </tlLogic>

    <junction id="J0" type="dead_end" x="39.71" y="45.95" incLanes="" intLanes="" shape="39.71,45.95 39.71,36.35"/>
    <junction id="J1" type="traffic_light" x="146.41" y="46.01" incLanes="E0_0 E0_1 E0_2" intLanes=":J1_0_0 :J1_0_1 :J1_0_2" shape="146.41,36.41 146.41,46.01 156.01,46.08 155.76,43.12 154.97,40.71 153.64,38.83 151.77,37.48 149.36,36.68">
        <request index="0" response="000" foes="000" cont="0"/>
        <request index="1" response="000" foes="000" cont="0"/>
        <request index="2" response="000" foes="000" cont="0"/>
    </junction>
    <junction id="J2" type="traffic_light" x="145.80" y="130.48" incLanes="E1_0 E1_1 E1_2" intLanes=":J2_0_0 :J2_0_1 :J2_0_2" shape="155.40,130.55 145.80,130.48 145.83,140.08 148.74,139.80 151.12,139.00 152.97,137.68 154.31,135.83 155.11,133.45">
        <request index="0" response="000" foes="000" cont="0"/>
        <request index="1" response="000" foes="000" cont="0"/>
        <request index="2" response="000" foes="000" cont="0"/>
    </junction>
    <junction id="J3" type="traffic_light" x="79.00" y="130.72" incLanes="E2_0 E2_1 E2_2" intLanes=":J3_0_0 :J3_0_1 :J3_0_2" shape="79.18,140.32 79.14,130.72 78.85,130.72 78.87,140.32">
        <request index="0" response="000" foes="000" cont="0"/>
        <request index="1" response="000" foes="000" cont="0"/>
        <request index="2" response="000" foes="000" cont="0"/>
    </junction>
    <junction id="J4" type="traffic_light" x="12.20" y="130.89" incLanes="E3_0 E3_1 E3_2" intLanes=":J4_0_0 :J4_0_1 :J4_0_2" shape="12.22,140.49 12.20,130.89 2.60,130.89 2.87,133.83 3.67,136.23 5.00,138.10 6.88,139.43 9.28,140.23">
        <request index="0" response="000" foes="000" cont="0"/>
        <request index="1" response="000" foes="000" cont="0"/>
        <request index="2" response="000" foes="000" cont="0"/>
    </junction>
    <junction id="J5" type="traffic_light" x="12.20" y="72.79" incLanes="E4_0 E4_1 E4_2" intLanes=":J5_0_0 :J5_0_1 :J5_0_2" shape="2.60,72.79 12.20,72.79 12.20,63.19 9.27,63.46 6.87,64.26 5.00,65.59 3.67,67.46 2.87,69.86">
        <request index="0" response="000" foes="000" cont="0"/>
        <request index="1" response="000" foes="000" cont="0"/>
        <request index="2" response="000" foes="000" cont="0"/>
    </junction>
    <junction id="J6" type="traffic_light" x="76.65" y="72.79" incLanes="E5_0 E5_1 E5_2" intLanes=":J6_0_0 :J6_0_1 :J6_0_2" shape="76.81,72.79 76.78,63.19 76.49,63.19 76.49,72.79">
        <request index="0" response="000" foes="000" cont="0"/>
        <request index="1" response="000" foes="000" cont="0"/>
        <request index="2" response="000" foes="000" cont="0"/>
    </junction>
    <junction id="J7" type="traffic_light" x="122.69" y="72.63" incLanes="E6_0 E6_1 E6_2" intLanes=":J7_0_0 :J7_0_1 :J7_0_2" shape="122.66,63.03 122.69,72.63 132.29,72.74 132.05,69.76 131.27,67.33 129.94,65.44 128.06,64.09 125.63,63.29">
        <request index="0" response="000" foes="000" cont="0"/>
        <request index="1" response="000" foes="000" cont="0"/>
        <request index="2" response="000" foes="000" cont="0"/>
    </junction>
    <junction id="J8" type="traffic_light" x="122.36" y="101.09" incLanes="E7_0 E7_1 E7_2" intLanes=":J8_0_0 :J8_0_1 :J8_0_2" shape="131.96,101.20 122.36,101.09 122.36,110.69 125.26,110.42 127.64,109.63 129.50,108.32 130.84,106.47 131.66,104.10">
        <request index="0" response="000" foes="000" cont="0"/>
        <request index="1" response="000" foes="000" cont="0"/>
        <request index="2" response="000" foes="000" cont="0"/>
    </junction>
    <junction id="J9" type="dead_end" x="75.48" y="101.09" incLanes="E8_0 E8_1 E8_2" intLanes="" shape="75.48,110.69 75.48,101.09"/>

    <connection from="E0" to="E1" fromLane="0" toLane="0" via=":J1_0_0" tl="J1" linkIndex="0" dir="l" state="O"/>
    <connection from="E0" to="E1" fromLane="1" toLane="1" via=":J1_0_1" tl="J1" linkIndex="1" dir="l" state="O"/>
    <connection from="E0" to="E1" fromLane="2" toLane="2" via=":J1_0_2" tl="J1" linkIndex="2" dir="l" state="O"/>
    <connection from="E1" to="E2" fromLane="0" toLane="0" via=":J2_0_0" tl="J2" linkIndex="0" dir="l" state="O"/>
    <connection from="E1" to="E2" fromLane="1" toLane="1" via=":J2_0_1" tl="J2" linkIndex="1" dir="l" state="O"/>
    <connection from="E1" to="E2" fromLane="2" toLane="2" via=":J2_0_2" tl="J2" linkIndex="2" dir="l" state="O"/>
    <connection from="E2" to="E3" fromLane="0" toLane="0" via=":J3_0_0" tl="J3" linkIndex="0" dir="s" state="O"/>
    <connection from="E2" to="E3" fromLane="1" toLane="1" via=":J3_0_1" tl="J3" linkIndex="1" dir="s" state="O"/>
    <connection from="E2" to="E3" fromLane="2" toLane="2" via=":J3_0_2" tl="J3" linkIndex="2" dir="s" state="O"/>
    <connection from="E3" to="E4" fromLane="0" toLane="0" via=":J4_0_0" tl="J4" linkIndex="0" dir="l" state="O"/>
    <connection from="E3" to="E4" fromLane="1" toLane="1" via=":J4_0_1" tl="J4" linkIndex="1" dir="l" state="O"/>
    <connection from="E3" to="E4" fromLane="2" toLane="2" via=":J4_0_2" tl="J4" linkIndex="2" dir="l" state="O"/>
    <connection from="E4" to="E5" fromLane="0" toLane="0" via=":J5_0_0" tl="J5" linkIndex="0" dir="l" state="O"/>
    <connection from="E4" to="E5" fromLane="1" toLane="1" via=":J5_0_1" tl="J5" linkIndex="1" dir="l" state="O"/>
    <connection from="E4" to="E5" fromLane="2" toLane="2" via=":J5_0_2" tl="J5" linkIndex="2" dir="l" state="O"/>
    <connection from="E5" to="E6" fromLane="0" toLane="0" via=":J6_0_0" tl="J6" linkIndex="0" dir="s" state="O"/>
    <connection from="E5" to="E6" fromLane="1" toLane="1" via=":J6_0_1" tl="J6" linkIndex="1" dir="s" state="O"/>
    <connection from="E5" to="E6" fromLane="2" toLane="2" via=":J6_0_2" tl="J6" linkIndex="2" dir="s" state="O"/>
    <connection from="E6" to="E7" fromLane="0" toLane="0" via=":J7_0_0" tl="J7" linkIndex="0" dir="l" state="O"/>
    <connection from="E6" to="E7" fromLane="1" toLane="1" via=":J7_0_1" tl="J7" linkIndex="1" dir="l" state="O"/>
    <connection from="E6" to="E7" fromLane="2" toLane="2" via=":J7_0_2" tl="J7" linkIndex="2" dir="l" state="O"/>
    <connection from="E7" to="E8" fromLane="0" toLane="0" via=":J8_0_0" tl="J8" linkIndex="0" dir="l" state="O"/>
    <connection from="E7" to="E8" fromLane="1" toLane="1" via=":J8_0_1" tl="J8" linkIndex="1" dir="l" state="O"/>
    <connection from="E7" to="E8" fromLane="2" toLane="2" via=":J8_0_2" tl="J8" linkIndex="2" dir="l" state="O"/>

    <connection from=":J1_0" to="E1" fromLane="0" toLane="0" dir="l" state="M"/>
    <connection from=":J1_0" to="E1" fromLane="1" toLane="1" dir="l" state="M"/>
    <connection from=":J1_0" to="E1" fromLane="2" toLane="2" dir="l" state="M"/>
    <connection from=":J2_0" to="E2" fromLane="0" toLane="0" dir="l" state="M"/>
    <connection from=":J2_0" to="E2" fromLane="1" toLane="1" dir="l" state="M"/>
    <connection from=":J2_0" to="E2" fromLane="2" toLane="2" dir="l" state="M"/>
    <connection from=":J3_0" to="E3" fromLane="0" toLane="0" dir="s" state="M"/>
    <connection from=":J3_0" to="E3" fromLane="1" toLane="1" dir="s" state="M"/>
    <connection from=":J3_0" to="E3" fromLane="2" toLane="2" dir="s" state="M"/>
    <connection from=":J4_0" to="E4" fromLane="0" toLane="0" dir="l" state="M"/>
    <connection from=":J4_0" to="E4" fromLane="1" toLane="1" dir="l" state="M"/>
    <connection from=":J4_0" to="E4" fromLane="2" toLane="2" dir="l" state="M"/>
    <connection from=":J5_0" to="E5" fromLane="0" toLane="0" dir="l" state="M"/>
    <connection from=":J5_0" to="E5" fromLane="1" toLane="1" dir="l" state="M"/>
    <connection from=":J5_0" to="E5" fromLane="2" toLane="2" dir="l" state="M"/>
    <connection from=":J6_0" to="E6" fromLane="0" toLane="0" dir="s" state="M"/>
    <connection from=":J6_0" to="E6" fromLane="1" toLane="1" dir="s" state="M"/>
    <connection from=":J6_0" to="E6" fromLane="2" toLane="2" dir="s" state="M"/>
    <connection from=":J7_0" to="E7" fromLane="0" toLane="0" dir="l" state="M"/>
    <connection from=":J7_0" to="E7" fromLane="1" toLane="1" dir="l" state="M"/>
    <connection from=":J7_0" to="E7" fromLane="2" toLane="2" dir="l" state="M"/>
    <connection from=":J8_0" to="E8" fromLane="0" toLane="0" dir="l" state="M"/>
    <connection from=":J8_0" to="E8" fromLane="1" toLane="1" dir="l" state="M"/>
    <connection from=":J8_0" to="E8" fromLane="2" toLane="2" dir="l" state="M"/>

</net>
