<?xml version="1.0" encoding="UTF-8"?>

<routes xmlns:xsi="http://www.w3.org/2001/XMLSchema-instance" xsi:noNamespaceSchemaLocation="http://sumo.dlr.de/xsd/routes_file.xsd">
    <vType id="car" accel="2.5" decel="4.5" sigma="0.5" length="5" minGap="2.5" maxSpeed="50"/>

    <vehicle id="veh0" type="car" depart="0">
        <route edges="23594040#0 1287928532#0 -835500119 -E14 E10 542403698 -553048612#1 -8032507#1"/>
    </vehicle>
    <vehicle id="veh1" type="car" depart="1">
        <route edges="9531177#0 -978736758#2 -7970808#2 -7970808#1 -986690432#1 -E10 E14 455949651 -8741654 -23594040#1"/>
    </vehicle>
    <vehicle id="veh2" type="car" depart="2">
        <route edges="24951719 496178023#0 758792988#0 496178019 496178020 496178021 496178022#0 496178022#1 496178011 978830848 -9538589 496178010#0 499165882#0 454491453 978736761#0 978736764 571750901#0"/>
    </vehicle>
    <vehicle id="veh3" type="car" depart="3">
        <route edges="851348185#0 758792988#0 496178019 496178020 496178021 496178022#0 496178022#1 496178011 978830848 -9538589 496178010#0 499165883#0"/>
    </vehicle>
    <vehicle id="veh4" type="car" depart="4">
        <route edges="-499165883#1 499165883#0"/>
    </vehicle>
    <vehicle id="veh5" type="car" depart="5">
        <route edges="8032507#0 -8032507#1"/>
    </vehicle>
    <vehicle id="veh6" type="car" depart="6">
        <route edges="-658173492 -9876564#0 -835500119 -E14 E10 542403698 7970808#0 7970808#2 978736758#0 978736760#0 -454491453 -499165882#1 499165883#0"/>
    </vehicle>
    <vehicle id="veh7" type="car" depart="7">
        <route edges="8028350#3 -758789350#1 -1030073792#2 -1030073792#1 -1030073792#0 -584244351#2 -48598469#2 -758792983#1 758792984#0 E0"/>
    </vehicle>
    <vehicle id="veh8" type="car" depart="8">
        <route edges="1262417180 -1081931923#2 9530459#0 E1 E3 E19 1041967563 -798339712#1 7970808#0 7970808#2 978736758#0 978736764 1042929708#1"/>
    </vehicle>
    <vehicle id="veh9" type="car" depart="9">
        <route edges="-1042929708#2 1006221214 978736762#0 978736760#0 -454491453 -499165882#1 499165883#0"/>
    </vehicle>
    <vehicle id="veh10" type="car" depart="10">
        <route edges="-499165883#1 -496178010#1 9538589 -978830848 978830848 -262876199 -9872990#4 -9872990#3 -9872990#2 -1077449316 -9530459#2 584244351#0 1030073792#0 1030073792#1 1030073792#2 758789350#0 -8028350#4"/>
    </vehicle>
    <vehicle id="veh11" type="car" depart="11">
        <route edges="-495966519 -7974661#1 499165882#0 454491453 978736761#0 -978736758#2 -7970808#2 -7970808#1 -986690432#1 -E10 E14 E16 -835500125 413380440#1 -1287928531"/>
    </vehicle>
    <vehicle id="veh12" type="car" depart="12">
        <route edges="-495966519 -7974661#1 -496178010#1 9538589 -978830848 978830848 -262876199 -9872990#4 -9872990#3 -9872990#2 -1077449316 -9530459#2 584244351#0 1030073792#0 1030073792#1 1030073792#2 758789350#0 -8028350#4"/>
    </vehicle>
    <vehicle id="veh13" type="car" depart="13">
        <route edges="851348185#0 323825354 758792983#0 1262417168#0 584244351#0 1030073792#0 1030073792#1 -249350515 -E15 E16 -835500125 413380440#1 -1287928531"/>
    </vehicle>
    <vehicle id="veh14" type="car" depart="14">
        <route edges="-1042929708#2 1006221215#0 777542217 985569501#0 -8032507#1"/>
    </vehicle>
    <vehicle id="veh15" type="car" depart="15">
        <route edges="24951719 496178023#0 758792988#0 496178019 496178020 496178021 496178022#0 496178022#1 496178011 978830848 -9538589 496178010#0 499165882#0 454491453 978736761#0 -9531177#2"/>
    </vehicle>
    <vehicle id="veh16" type="car" depart="16">
        <route edges="-658173492 62074686"/>
    </vehicle>
    <vehicle id="veh17" type="car" depart="17">
        <route edges="24951719 496178023#0 E0"/>
    </vehicle>
    <vehicle id="veh18" type="car" depart="18">
        <route edges="-658173492 -9876564#0 -8741654 -23594040#1"/>
    </vehicle>
    <vehicle id="veh19" type="car" depart="19">
        <route edges="851348185#0 323825354 758792983#0 1262417168#0 584244351#0 1030073792#0 1030073792#1 -249350515 -E15 E16 E17 -23242127"/>
    </vehicle>
    <vehicle id="veh20" type="car" depart="20">
        <route edges="-1042929708#2 1006221214 978736762#0 978736760#0 -454491453 -499165882#1 -496178010#1 9538589 -978830848 -496178011 323825353 496178015 496178016 496178017 758792981#0 973336303#0 -24951719"/>
    </vehicle>
    <vehicle id="veh21" type="car" depart="21">
        <route edges="23242127 -E17 -E16 -E14 E10 542403698 -553048612#1 -8032507#1"/>
    </vehicle>
    <vehicle id="veh22" type="car" depart="22">
        <route edges="23242127 -E17 -E16 455949651 -8741654 -23594040#1"/>
    </vehicle>
    <vehicle id="veh23" type="car" depart="23">
        <route edges="23594040#0 -758789350#1 -1030073792#2 -1030073792#1 -1030073792#0 -584244351#2 9530459#0 9530459#3 9872990#0 9872990#3 9872990#4 262876199 -9538589 496178010#0 7974661#0 495966519"/>
    </vehicle>
    <vehicle id="veh24" type="car" depart="24">
        <route edges="-1042929708#2 1006221214 978736762#0 -978736758#2 -7970808#2 -7970808#1 -986690432#1 -E10 E14 E16 -835500125 413380440#1 -1287928531"/>
    </vehicle>
    <vehicle id="veh25" type="car" depart="25">
        <route edges="1262417180 -1081931923#2 -48598469#2 -758792983#1 758792984#0 973336303#0 -24951719"/>
    </vehicle>
    <vehicle id="veh26" type="car" depart="26">
        <route edges="851348185#0 323825354 758792983#0 1262417168#0 584244351#0 1030073792#0 1030073792#1 -249350515 -E15 E16 E17 -23242127"/>
    </vehicle>
    <vehicle id="veh27" type="car" depart="27">
        <route edges="851348185#0 323825354 758792983#0 1262417168#0 584244351#0 1030073792#0 1030073792#1 1030073792#2 758789350#0 -23594040#1"/>
    </vehicle>
    <vehicle id="veh28" type="car" depart="28">
        <route edges="-499165883#1 499165882#0 454491453 978736761#0 -978736758#2 -7970808#2 -7970808#1 -986690432#1 -E10 E14 455949651 9876564#0 62074686"/>
    </vehicle>
    <vehicle id="veh29" type="car" depart="29">
        <route edges="8032507#0 985569502 -777542217 978736763#0 1006221214 978736762#0 978736760#0 -454491453 -499165882#1 7974661#0 495966519"/>
    </vehicle>
    <vehicle id="veh30" type="car" depart="30">
        <route edges="-658173492 -9876564#0 -8741654 -758789350#1 -1030073792#2 -1030073792#1 -1030073792#0 -584244351#2 1081931923#0 1262417177"/>
    </vehicle>
    <vehicle id="veh31" type="car" depart="31">
        <route edges="851348185#0 973336303#0 -24951719"/>
    </vehicle>
    <vehicle id="veh32" type="car" depart="32">
        <route edges="-571750901#2 1006221214 978736762#0 -978736758#2 -7970808#2 -7970808#1 -986690432#1 -E10 E14 E16 -835500125 413380440#1 -1287928531"/>
    </vehicle>
    <vehicle id="veh33" type="car" depart="33">
        <route edges="-658173492 -9876564#0 -835500119 -E14 E10 542403698 -553048612#1 -8032507#1"/>
    </vehicle>
    <vehicle id="veh34" type="car" depart="34">
        <route edges="-658173492 -9876564#0 -835500119 -E14 E10 542403698 7970808#0 7970808#2 978736758#0 978736760#0 -454491453 -499165882#1 7974661#0 495966519"/>
    </vehicle>
    <vehicle id="veh35" type="car" depart="35">
        <route edges="24951719 496178023#0 758792988#0 496178019 496178020 496178021 496178022#0 496178022#1 496178011 978830848 -9538589 496178010#0 499165882#0 454491453 978736761#0 978736764 571750901#0"/>
    </vehicle>
    <vehicle id="veh36" type="car" depart="36">
        <route edges="1262417180 -1081931923#2 -48598469#2 -758792983#1 758792984#0 E0"/>
    </vehicle>
    <vehicle id="veh37" type="car" depart="37">
        <route edges="-495966519 -7974661#1 499165882#0 454491453 978736761#0 978736764 571750901#0"/>
    </vehicle>
    <vehicle id="veh38" type="car" depart="38">
        <route edges="851348185#0 323825354 758792983#0 -48598471#2 1081931924#0 896747267#0 1041967563 -798339712#1 -553048612#1 -8032507#1"/>
    </vehicle>
    <vehicle id="veh39" type="car" depart="39">
        <route edges="-499165883#1 499165883#0"/>
    </vehicle>
    <vehicle id="veh40" type="car" depart="40">
        <route edges="-495966519 -7974661#1 499165882#0 454491453 978736761#0 -978736758#2 -7970808#2 -7970808#1 -986690432#1 -E10 E14 455949651 9876564#0 62074686"/>
    </vehicle>
    <vehicle id="veh41" type="car" depart="41">
        <route edges="-499165883#1 -496178010#1 9538589 -978830848 -496178011 323825353 496178015 496178016 496178017 758792981#0 973336303#0 -24951719"/>
    </vehicle>
    <vehicle id="veh42" type="car" depart="42">
        <route edges="-1042929708#2 1006221214 978736762#0 -978736758#2 -7970808#2 -7970808#1 -986690432#1 -E10 E14 455949651 -8741654 -23594040#1"/>
    </vehicle>
    <vehicle id="veh43" type="car" depart="43">
        <route edges="23242127 -E17 -E16 -E14 E10 542403698 7970808#0 7970808#2 978736758#0 978736760#0 -454491453 -499165882#1 7974661#0 495966519"/>
    </vehicle>
    <vehicle id="veh44" type="car" depart="44">
        <route edges="-658173492 -9876564#0 -8741654 -758789350#1 -1030073792#2 -1030073792#1 -1030073792#0 -584244351#2 1081931923#0 1262417177"/>
    </vehicle>
    <vehicle id="veh45" type="car" depart="45">
        <route edges="-499165883#1 499165882#0 454491453 978736761#0 -978736758#2 -7970808#2 -7970808#1 -986690432#1 -E10 E14 E16 E17 -23242127"/>
    </vehicle>
    <vehicle id="veh46" type="car" depart="46">
        <route edges="23594040#0 -23594040#1"/>
    </vehicle>
    <vehicle id="veh47" type="car" depart="47">
        <route edges="851348185#0 323825354 758792983#0 1262417168#0 584244351#0 1030073792#0 1030073792#1 1030073792#2 758789350#0 -8028350#4"/>
    </vehicle>
    <vehicle id="veh48" type="car" depart="48">
        <route edges="451958405 -1287928530 23242308 E17 -23242127"/>
    </vehicle>
    <vehicle id="veh49" type="car" depart="49">
        <route edges="-571750901#2 1042929708#1"/>
    </vehicle>
    <vehicle id="veh50" type="car" depart="50">
        <route edges="8028350#3 1287928532#0 -835500119 -E14 E10 542403698 7970808#0 7970808#2 978736758#0 978736764 571750901#0"/>
    </vehicle>
    <vehicle id="veh51" type="car" depart="51">
        <route edges="23242127 -E17 -E16 -E14 E10 542403698 7970808#0 7970808#2 978736758#0 978736760#0 -454491453 -499165882#1 499165883#0"/>
    </vehicle>
    <vehicle id="veh52" type="car" depart="52">
        <route edges="1262417180 -1081931923#2 584244351#0 1030073792#0 1030073792#1 1030073792#2 758789350#0 -23594040#1"/>
    </vehicle>
    <vehicle id="veh53" type="car" depart="53">
        <route edges="8028350#3 -758789350#1 -1030073792#2 -1030073792#1 -1030073792#0 -584244351#2 9530459#0 9530459#3 9872990#0 9872990#3 9872990#4 262876199 -9538589 496178010#0 7974661#0 495966519"/>
    </vehicle>
    <vehicle id="veh54" type="car" depart="54">
        <route edges="-499165883#1 499165882#0 454491453 978736761#0 -978736758#2 -7970808#2 -7970808#1 -986690432#1 -E10 E14 455949651 9876564#0 62074686"/>
    </vehicle>
    <vehicle id="veh55" type="car" depart="55">
        <route edges="24951719 496178023#0 758792988#0 496178019 496178020 496178021 496178022#0 496178022#1 496178011 978830848 -9538589 496178010#0 499165882#0 454491453 978736761#0 -9531177#2"/>
    </vehicle>
    <vehicle id="veh56" type="car" depart="56">
        <route edges="-571750901#2 1006221214 978736762#0 -9531177#2"/>
    </vehicle>
    <vehicle id="veh57" type="car" depart="57">
        <route edges="24951719 496178023#0 323825354 758792983#0 1262417168#0 584244351#0 1030073792#0 1030073792#1 1030073792#2 758789350#0 1287928532#0 9876564#0 62074686"/>
    </vehicle>
    <vehicle id="veh58" type="car" depart="58">
        <route edges="1262417180 -1081931923#2 1081931923#0 1262417177"/>
    </vehicle>
    <vehicle id="veh59" type="car" depart="59">
        <route edges="-571750901#2 1006221214 978736762#0 -978736758#2 -7970808#2 -7970808#1 -986690432#1 -E10 E14 E16 E17 -23242127"/>
    </vehicle>
    <vehicle id="veh60" type="car" depart="60">
        <route edges="-499165883#1 499165882#0 454491453 978736761#0 -9531177#2"/>
    </vehicle>
    <vehicle id="veh61" type="car" depart="61">
        <route edges="851348185#0 323825354 758792983#0 1262417168#0 584244351#0 1030073792#0 1030073792#1 -249350515 -E15 E16 -835500125 413380440#1 -1287928531"/>
    </vehicle>
    <vehicle id="veh62" type="car" depart="62">
        <route edges="1262417180 -1081931923#2 9530459#0 E1 E3 E19 1041967563 -798339712#1 7970808#0 7970808#2 978736758#0 -9531177#2"/>
    </vehicle>
    <vehicle id="veh63" type="car" depart="63">
        <route edges="8028350#3 1287928532#0 -835500119 -E14 E10 542403698 7970808#0 7970808#2 978736758#0 -9531177#2"/>
    </vehicle>
    <vehicle id="veh64" type="car" depart="64">
        <route edges="8028350#3 -8028350#4"/>
    </vehicle>
    <vehicle id="veh65" type="car" depart="65">
        <route edges="1262417180 -1081931923#2 9530459#0 9530459#3 9872990#0 9872990#3 9872990#4 262876199 -9538589 496178010#0 7974661#0 495966519"/>
    </vehicle>
    <vehicle id="veh66" type="car" depart="66">
        <route edges="-571750901#2 1006221214 978736762#0 978736760#0 -454491453 -499165882#1 499165883#0"/>
    </vehicle>
    <vehicle id="veh67" type="car" depart="67">
        <route edges="-499165883#1 499165882#0 454491453 978736761#0 -978736758#2 -7970808#2 -7970808#1 -986690432#1 -E10 E14 E16 -835500125 413380440#1 -1287928531"/>
    </vehicle>
    <vehicle id="veh68" type="car" depart="68">
        <route edges="9531177#0 -978736758#2 -7970808#2 -7970808#1 798339712#0 1041967565#0 -E19 -E3 -E1 -9530459#2 1081931923#0 1262417177"/>
    </vehicle>
    <vehicle id="veh69" type="car" depart="69">
        <route edges="1262417180 -1081931923#2 -48598469#2 -758792983#1 758792984#0 973336303#0 -24951719"/>
    </vehicle>
    <vehicle id="veh70" type="car" depart="70">
        <route edges="8028350#3 1287928532#0 -835500119 -E14 E10 542403698 -553048612#1 -8032507#1"/>
    </vehicle>
    <vehicle id="veh71" type="car" depart="71">
        <route edges="23594040#0 -758789350#1 -1030073792#2 -1030073792#1 -1030073792#0 -584244351#2 -48598469#2 -758792983#1 758792984#0 E0"/>
    </vehicle>
    <vehicle id="veh72" type="car" depart="72">
        <route edges="851348185#0 323825354 758792983#0 -48598471#2 1081931924#0 896747267#0 1041967563 -798339712#1 -553048612#1 -8032507#1"/>
    </vehicle>
    <vehicle id="veh73" type="car" depart="73">
        <route edges="23242127 -23242127"/>
    </vehicle>
    <vehicle id="veh74" type="car" depart="74">
        <route edges="23594040#0 -8028350#4"/>
    </vehicle>
    <vehicle id="veh75" type="car" depart="75">
        <route edges="-1042929708#2 1006221215#0 777542217 985569501#0 -8032507#1"/>
    </vehicle>
    <vehicle id="veh76" type="car" depart="76">
        <route edges="-495966519 -7974661#1 499165883#0"/>
    </vehicle>
    <vehicle id="veh77" type="car" depart="77">
        <route edges="451958405 -1287928530 -413380440#0 -9876564#0 -8741654 -23594040#1"/>
    </vehicle>
    <vehicle id="veh78" type="car" depart="78">
        <route edges="8028350#3 -8028350#4"/>
    </vehicle>
    <vehicle id="veh79" type="car" depart="79">
        <route edges="9531177#0 978736760#0 -454491453 -499165882#1 7974661#0 495966519"/>
    </vehicle>
    <vehicle id="veh80" type="car" depart="80">
        <route edges="8028350#3 -758789350#1 -1030073792#2 -1030073792#1 -1030073792#0 -584244351#2 -48598469#2 -758792983#1 758792984#0 E0"/>
    </vehicle>
    <vehicle id="veh81" type="car" depart="81">
        <route edges="-571750901#2 1006221214 978736762#0 978736760#0 -454491453 -499165882#1 -496178010#1 9538589 -978830848 -496178011 323825353 496178015 496178016 496178017 758792981#0 E0"/>
    </vehicle>
    <vehicle id="veh82" type="car" depart="82">
        <route edges="-658173492 9876564#1 23242308 E17 -23242127"/>
    </vehicle>
    <vehicle id="veh83" type="car" depart="83">
        <route edges="851348185#0 758792988#0 496178019 496178020 496178021 496178022#0 496178022#1 496178011 978830848 -9538589 496178010#0 499165882#0 454491453 978736761#0 -9531177#2"/>
    </vehicle>
    <vehicle id="veh84" type="car" depart="84">
        <route edges="451958405 -1287928530 23242308 -E16 -E14 E10 542403698 7970808#0 7970808#2 978736758#0 978736764 1042929708#1"/>
    </vehicle>
    <vehicle id="veh85" type="car" depart="85">
        <route edges="8032507#0 985569502 -777542217 978736763#0 1006221214 978736762#0 978736760#0 -454491453 -499165882#1 499165883#0"/>
    </vehicle>
    <vehicle id="veh86" type="car" depart="86">
        <route edges="-1042929708#2 1006221214 978736762#0 978736760#0 -454491453 -499165882#1 7974661#0 495966519"/>
    </vehicle>
    <vehicle id="veh87" type="car" depart="87">
        <route edges="851348185#0 323825354 758792983#0 1262417168#0 584244351#0 1030073792#0 1030073792#1 -249350515 -E15 E16 E17 -23242127"/>
    </vehicle>
    <vehicle id="veh88" type="car" depart="88">
        <route edges="-495966519 -7974661#1 -496178010#1 9538589 -978830848 -496178011 323825353 496178015 496178016 496178017 758792981#0 973336303#0 -24951719"/>
    </vehicle>
    <vehicle id="veh89" type="car" depart="89">
        <route edges="24951719 496178023#0 323825354 758792983#0 1262417168#0 584244351#0 1030073792#0 1030073792#1 1030073792#2 758789350#0 -23594040#1"/>
    </vehicle>
    <vehicle id="veh90" type="car" depart="90">
        <route edges="8032507#0 1176537375#0 -986690432#1 -E10 E14 455949651 9876564#0 62074686"/>
    </vehicle>
    <vehicle id="veh91" type="car" depart="91">
        <route edges="851348185#0 758792988#0 496178019 496178020 496178021 496178022#0 496178022#1 496178011 978830848 -9538589 496178010#0 7974661#0 495966519"/>
    </vehicle>
    <vehicle id="veh92" type="car" depart="92">
        <route edges="8028350#3 1287928532#0 -835500119 E16 E17 -23242127"/>
    </vehicle>
    <vehicle id="veh93" type="car" depart="93">
        <route edges="851348185#0 323825354 758792983#0 1262417168#0 584244351#0 1030073792#0 1030073792#1 -249350515 -E15 E16 -835500125 413380440#1 -1287928531"/>
    </vehicle>
    <vehicle id="veh94" type="car" depart="94">
        <route edges="8032507#0 1176537375#0 -986690432#1 -E10 E14 455949651 -8741654 -8028350#4"/>
    </vehicle>
    <vehicle id="veh95" type="car" depart="95">
        <route edges="23242127 -E17 -E16 -E14 E10 542403698 7970808#0 7970808#2 978736758#0 -9531177#2"/>
    </vehicle>
    <vehicle id="veh96" type="car" depart="96">
        <route edges="9531177#0 -9531177#2"/>
    </vehicle>
    <vehicle id="veh97" type="car" depart="97">
        <route edges="-571750901#2 1006221214 978736762#0 -978736758#2 -7970808#2 -7970808#1 -986690432#1 -E10 E14 455949651 -8741654 -8028350#4"/>
    </vehicle>
    <vehicle id="veh98" type="car" depart="98">
        <route edges="-571750901#2 1006221214 978736762#0 -978736758#2 -7970808#2 -7970808#1 -986690432#1 -E10 E14 E16 E17 -23242127"/>
    </vehicle>
    <vehicle id="veh99" type="car" depart="99">
        <route edges="-495966519 -7974661#1 -496178010#1 9538589 -978830848 -496178011 323825353 496178015 496178016 496178017 758792981#0 973336303#0 -24951719"/>
    </vehicle>
    <vehicle id="veh100" type="car" depart="100">
        <route edges="8032507#0 1176537375#0 -986690432#1 -E10 E14 455949651 -8741654 -23594040#1"/>
    </vehicle>
    <vehicle id="veh101" type="car" depart="101">
        <route edges="851348185#0 758792988#0 496178019 496178020 496178021 496178022#0 496178022#1 496178011 978830848 -9538589 496178010#0 499165882#0 454491453 978736761#0 978736764 1042929708#1"/>
    </vehicle>
    <vehicle id="veh102" type="car" depart="102">
        <route edges="-1042929708#2 1006221214 978736762#0 978736760#0 -454491453 -499165882#1 -496178010#1 9538589 -978830848 -496178011 323825353 496178015 496178016 496178017 758792981#0 E0"/>
    </vehicle>
    <vehicle id="veh103" type="car" depart="103">
        <route edges="23242127 -E17 -E16 -E14 E10 542403698 7970808#0 7970808#2 978736758#0 -9531177#2"/>
    </vehicle>
    <vehicle id="veh104" type="car" depart="104">
        <route edges="8028350#3 -758789350#1 -1030073792#2 -1030073792#1 -1030073792#0 -584244351#2 -48598469#2 -758792983#1 758792984#0 E0"/>
    </vehicle>
    <vehicle id="veh105" type="car" depart="105">
        <route edges="9531177#0 -978736758#2 -7970808#2 -7970808#1 -986690432#1 -E10 E14 455949651 -8741654 -23594040#1"/>
    </vehicle>
    <vehicle id="veh106" type="car" depart="106">
        <route edges="8032507#0 1176537375#0 798339712#0 1041967565#0 -E19 -E3 -E1 -9530459#2 1081931923#0 1262417177"/>
    </vehicle>
    <vehicle id="veh107" type="car" depart="107">
        <route edges="851348185#0 758792988#0 496178019 496178020 496178021 496178022#0 496178022#1 496178011 978830848 -9538589 496178010#0 499165882#0 454491453 978736761#0 978736764 1042929708#1"/>
    </vehicle>
    <vehicle id="veh108" type="car" depart="108">
        <route edges="851348185#0 758792988#0 496178019 496178020 496178021 496178022#0 496178022#1 496178011 978830848 -9538589 496178010#0 499165882#0 454491453 978736761#0 978736764 571750901#0"/>
    </vehicle>
    <vehicle id="veh109" type="car" depart="109">
        <route edges="8028350#3 1287928532#0 -835500119 -E14 E10 542403698 7970808#0 7970808#2 978736758#0 978736764 571750901#0"/>
    </vehicle>
    <vehicle id="veh110" type="car" depart="110">
        <route edges="-571750901#2 1006221214 978736762#0 -978736758#2 -7970808#2 -7970808#1 -986690432#1 -E10 E14 E16 -835500125 413380440#1 -1287928531"/>
    </vehicle>
    <vehicle id="veh111" type="car" depart="111">
        <route edges="-658173492 -9876564#0 -8741654 -23594040#1"/>
    </vehicle>
    <vehicle id="veh112" type="car" depart="112">
        <route edges="9531177#0 978736764 1042929708#1"/>
    </vehicle>
    <vehicle id="veh113" type="car" depart="113">
        <route edges="851348185#0 323825354 758792983#0 -48598471#2 1081931924#0 896747267#0 1041967563 -798339712#1 -553048612#1 -8032507#1"/>
    </vehicle>
    <vehicle id="veh114" type="car" depart="114">
        <route edges="451958405 -1287928530 23242308 -E16 E15 249350515 -1030073792#1 -1030073792#0 -584244351#2 -48598469#2 -758792983#1 758792984#0 E0"/>
    </vehicle>
    <vehicle id="veh115" type="car" depart="115">
        <route edges="851348185#0 323825354 758792983#0 -48598471#2 1081931924#0 896747267#0 1041967563 -798339712#1 -553048612#1 -8032507#1"/>
    </vehicle>
    <vehicle id="veh116" type="car" depart="116">
        <route edges="-658173492 -9876564#0 -8741654 -8028350#4"/>
    </vehicle>
    <vehicle id="veh117" type="car" depart="117">
        <route edges="8028350#3 -8028350#4"/>
    </vehicle>
    <vehicle id="veh118" type="car" depart="118">
        <route edges="23242127 -E17 -E16 -E14 E10 542403698 7970808#0 7970808#2 978736758#0 978736760#0 -454491453 -499165882#1 7974661#0 495966519"/>
    </vehicle>
    <vehicle id="veh119" type="car" depart="119">
        <route edges="851348185#0 323825354 758792983#0 1262417168#0 584244351#0 1030073792#0 1030073792#1 1030073792#2 758789350#0 -23594040#1"/>
    </vehicle>
    <vehicle id="veh120" type="car" depart="120">
        <route edges="23594040#0 -758789350#1 -1030073792#2 -1030073792#1 -1030073792#0 -584244351#2 -48598469#2 -758792983#1 758792984#0 E0"/>
    </vehicle>
    <vehicle id="veh121" type="car" depart="121">
        <route edges="8028350#3 -758789350#1 -1030073792#2 -1030073792#1 -1030073792#0 -584244351#2 9530459#0 9530459#3 9872990#0 9872990#3 9872990#4 262876199 -9538589 496178010#0 499165883#0"/>
    </vehicle>
    <vehicle id="veh122" type="car" depart="122">
        <route edges="-495966519 -7974661#1 499165882#0 454491453 978736761#0 -978736758#2 -7970808#2 -7970808#1 -986690432#1 -E10 E14 455949651 9876564#0 62074686"/>
    </vehicle>
    <vehicle id="veh123" type="car" depart="123">
        <route edges="9531177#0 978736760#0 -454491453 -499165882#1 -496178010#1 9538589 -978830848 -496178011 323825353 496178015 496178016 496178017 758792981#0 E0"/>
    </vehicle>
    <vehicle id="veh124" type="car" depart="124">
        <route edges="851348185#0 973336303#0 -24951719"/>
    </vehicle>
    <vehicle id="veh125" type="car" depart="125">
        <route edges="23594040#0 -758789350#1 -1030073792#2 -1030073792#1 -1030073792#0 -584244351#2 9530459#0 9530459#3 9872990#0 9872990#3 9872990#4 262876199 -9538589 496178010#0 7974661#0 495966519"/>
    </vehicle>
    <vehicle id="veh126" type="car" depart="126">
        <route edges="-499165883#1 -496178010#1 9538589 -978830848 978830848 -262876199 -9872990#4 -9872990#3 -9872990#2 -1077449316 -9530459#2 1081931923#0 1262417177"/>
    </vehicle>
    <vehicle id="veh127" type="car" depart="127">
        <route edges="-495966519 -7974661#1 499165882#0 454491453 978736761#0 -978736758#2 -7970808#2 -7970808#1 -986690432#1 -E10 E14 E16 -835500125 413380440#1 -1287928531"/>
    </vehicle>
    <vehicle id="veh128" type="car" depart="128">
        <route edges="-658173492 62074686"/>
    </vehicle>
    <vehicle id="veh129" type="car" depart="129">
        <route edges="9531177#0 978736760#0 -454491453 -499165882#1 7974661#0 495966519"/>
    </vehicle>
    <vehicle id="veh130" type="car" depart="130">
        <route edges="-571750901#2 1042929708#1"/>
    </vehicle>
    <vehicle id="veh131" type="car" depart="131">
        <route edges="23242127 -E17 -E16 455949651 -8741654 -8028350#4"/>
    </vehicle>
    <vehicle id="veh132" type="car" depart="132">
        <route edges="851348185#0 758792988#0 496178019 496178020 496178021 496178022#0 496178022#1 496178011 978830848 -9538589 496178010#0 7974661#0 495966519"/>
    </vehicle>
    <vehicle id="veh133" type="car" depart="133">
        <route edges="-1042929708#2 1006221214 978736762#0 -978736758#2 -7970808#2 -7970808#1 -986690432#1 -E10 E14 E16 -835500125 413380440#1 -1287928531"/>
    </vehicle>
    <vehicle id="veh134" type="car" depart="134">
        <route edges="-571750901#2 1006221214 978736762#0 978736760#0 -454491453 -499165882#1 499165883#0"/>
    </vehicle>
    <vehicle id="veh135" type="car" depart="135">
        <route edges="-1042929708#2 571750901#0"/>
    </vehicle>
    <vehicle id="veh136" type="car" depart="136">
        <route edges="8032507#0 1176537375#0 -986690432#1 -E10 E14 E16 E17 -23242127"/>
    </vehicle>
    <vehicle id="veh137" type="car" depart="137">
        <route edges="24951719 496178023#0 323825354 758792983#0 -758792983#1 758792984#0 973336303#0 -24951719"/>
    </vehicle>
    <vehicle id="veh138" type="car" depart="138">
        <route edges="9531177#0 978736760#0 -454491453 -499165882#1 499165883#0"/>
    </vehicle>
    <vehicle id="veh139" type="car" depart="139">
        <route edges="851348185#0 973336303#0 -24951719"/>
    </vehicle>
    <vehicle id="veh140" type="car" depart="140">
        <route edges="23594040#0 -758789350#1 -1030073792#2 -1030073792#1 -1030073792#0 -584244351#2 -48598469#2 -758792983#1 758792984#0 973336303#0 -24951719"/>
    </vehicle>
    <vehicle id="veh141" type="car" depart="141">
        <route edges="-571750901#2 1006221214 978736762#0 978736760#0 -454491453 -499165882#1 -496178010#1 9538589 -978830848 -496178011 323825353 496178015 496178016 496178017 758792981#0 973336303#0 -24951719"/>
    </vehicle>
    <vehicle id="veh142" type="car" depart="142">
        <route edges="-658173492 9876564#1 413380440#1 -1287928531"/>
    </vehicle>
    <vehicle id="veh143" type="car" depart="143">
        <route edges="23242127 -E17 -E16 455949651 -8741654 -23594040#1"/>
    </vehicle>
    <vehicle id="veh144" type="car" depart="144">
        <route edges="24951719 496178023#0 323825354 758792983#0 1262417168#0 584244351#0 1030073792#0 1030073792#1 -249350515 -E15 E16 -835500125 413380440#1 -1287928531"/>
    </vehicle>
    <vehicle id="veh145" type="car" depart="145">
        <route edges="451958405 -1287928530 23242308 -E16 E15 249350515 -1030073792#1 -1030073792#0 -584244351#2 -48598469#2 -758792983#1 758792984#0 973336303#0 -24951719"/>
    </vehicle>
    <vehicle id="veh146" type="car" depart="146">
        <route edges="-495966519 -7974661#1 -496178010#1 9538589 -978830848 978830848 -262876199 -9872990#4 -9872990#3 -9872990#2 -1077449316 -9530459#2 584244351#0 1030073792#0 1030073792#1 1030073792#2 758789350#0 -23594040#1"/>
    </vehicle>
    <vehicle id="veh147" type="car" depart="147">
        <route edges="8028350#3 -758789350#1 -1030073792#2 -1030073792#1 -1030073792#0 -584244351#2 9530459#0 9530459#3 9872990#0 9872990#3 9872990#4 262876199 -9538589 496178010#0 7974661#0 495966519"/>
    </vehicle>
    <vehicle id="veh148" type="car" depart="148">
        <route edges="8028350#3 -758789350#1 -1030073792#2 -1030073792#1 -1030073792#0 -584244351#2 9530459#0 9530459#3 9872990#0 9872990#3 9872990#4 262876199 -9538589 496178010#0 499165883#0"/>
    </vehicle>
    <vehicle id="veh149" type="car" depart="149">
        <route edges="1262417180 -1081931923#2 -48598469#2 -758792983#1 758792984#0 E0"/>
    </vehicle>
    <vehicle id="veh150" type="car" depart="150">
        <route edges="1262417180 -1081931923#2 9530459#0 9530459#3 9872990#0 9872990#3 9872990#4 262876199 -9538589 496178010#0 7974661#0 495966519"/>
    </vehicle>
    <vehicle id="veh151" type="car" depart="151">
        <route edges="851348185#0 973336303#0 -24951719"/>
    </vehicle>
    <vehicle id="veh152" type="car" depart="152">
        <route edges="851348185#0 323825354 758792983#0 1262417168#0 1081931923#0 1262417177"/>
    </vehicle>
    <vehicle id="veh153" type="car" depart="153">
        <route edges="-495966519 -7974661#1 7974661#0 495966519"/>
    </vehicle>
    <vehicle id="veh154" type="car" depart="154">
        <route edges="-658173492 -9876564#0 -835500119 -E14 E10 542403698 7970808#0 7970808#2 978736758#0 -9531177#2"/>
    </vehicle>
    <vehicle id="veh155" type="car" depart="155">