<?xml version="1.0" encoding="UTF-8"?>

<!-- generated on 2025-04-16 22:02:34 by Eclipse SUMO netedit Version 1.18.0
<configuration xmlns:xsi="http://www.w3.org/2001/XMLSchema-instance" xsi:noNamespaceSchemaLocation="http://sumo.dlr.de/xsd/neteditConfiguration.xsd">

    <input>
        <sumo-net-file value="/home/nicklas/Documents/DAS_semester2/bio/swarm_project/sumo/world_cross_1_tls_2_phases_2_lanes.net.xml"/>
    </input>

    <output>
        <output-file value="/home/nicklas/Documents/DAS_semester2/bio/swarm_project/sumo/world_cross_1_tls_2_phases_2_lanes.net.xml"/>
    </output>

    <processing>
        <geometry.min-radius.fix.railways value="false"/>
        <geometry.max-grade.fix value="false"/>
        <offset.disable-normalization value="true"/>
        <lefthand value="0"/>
    </processing>

    <junctions>
        <no-turnarounds value="true"/>
        <junctions.corner-detail value="5"/>
        <junctions.limit-turn-speed value="5.50"/>
        <rectangular-lane-cut value="0"/>
    </junctions>

    <pedestrian>
        <walkingareas value="0"/>
    </pedestrian>

</configuration>
-->

<net version="1.16" junctionCornerDetail="5" limitTurnSpeed="5.50" xmlns:xsi="http://www.w3.org/2001/XMLSchema-instance" xsi:noNamespaceSchemaLocation="http://sumo.dlr.de/xsd/net_file.xsd">

    <location netOffset="0.00,0.00" convBoundary="0.00,-300.00,600.00,300.00" origBoundary="-10000000000.00,-10000000000.00,10000000000.00,10000000000.00" projParameter="!"/>

    <edge id=":J8_0" function="internal">
        <lane id=":J8_0_0" index="0" speed="6.51" length="9.03" shape="295.20,10.40 294.85,7.95 293.80,6.20 292.05,5.15 289.60,4.80"/>
    </edge>
    <edge id=":J8_1" function="internal">
        <lane id=":J8_1_0" index="0" speed="50.00" length="20.80" shape="295.20,10.40 295.20,-10.40"/>
    </edge>
    <edge id=":J8_2" function="internal">
        <lane id=":J8_2_0" index="0" speed="9.26" length="10.42" shape="298.40,10.40 299.15,5.15 301.40,1.40 302.04,1.02"/>
    </edge>
    <edge id=":J8_12" function="internal">
        <lane id=":J8_12_0" index="0" speed="9.26" length="8.93" shape="302.04,1.02 305.15,-0.85 310.40,-1.60"/>
    </edge>
    <edge id=":J8_3" function="internal">
        <lane id=":J8_3_0" index="0" speed="6.51" length="9.03" shape="310.40,4.80 307.95,5.15 306.20,6.20 305.15,7.95 304.80,10.40"/>
    </edge>
    <edge id=":J8_4" function="internal">
        <lane id=":J8_4_0" index="0" speed="50.00" length="20.80" shape="310.40,4.80 289.60,4.80"/>
    </edge>
    <edge id=":J8_5" function="internal">
        <lane id=":J8_5_0" index="0" speed="9.26" length="10.42" shape="310.40,1.60 305.15,0.85 301.40,-1.40 301.02,-2.04"/>
    </edge>
    <edge id=":J8_13" function="internal">
        <lane id=":J8_13_0" index="0" speed="9.26" length="8.93" shape="301.02,-2.04 299.15,-5.15 298.40,-10.40"/>
    </edge>
    <edge id=":J8_6" function="internal">
        <lane id=":J8_6_0" index="0" speed="6.51" length="9.03" shape="304.80,-10.40 305.15,-7.95 306.20,-6.20 307.95,-5.15 310.40,-4.80"/>
    </edge>
    <edge id=":J8_7" function="internal">
        <lane id=":J8_7_0" index="0" speed="50.00" length="20.80" shape="304.80,-10.40 304.80,10.40"/>
    </edge>
    <edge id=":J8_8" function="internal">
        <lane id=":J8_8_0" index="0" speed="9.26" length="10.42" shape="301.60,-10.40 300.85,-5.15 298.60,-1.40 297.96,-1.02"/>
    </edge>
    <edge id=":J8_14" function="internal">
        <lane id=":J8_14_0" index="0" speed="9.26" length="8.93" shape="297.96,-1.02 294.85,0.85 289.60,1.60"/>
    </edge>
    <edge id=":J8_9" function="internal">
        <lane id=":J8_9_0" index="0" speed="6.51" length="9.03" shape="289.60,-4.80 292.05,-5.15 293.80,-6.20 294.85,-7.95 295.20,-10.40"/>
    </edge>
    <edge id=":J8_10" function="internal">
        <lane id=":J8_10_0" index="0" speed="50.00" length="20.80" shape="289.60,-4.80 310.40,-4.80"/>
    </edge>
    <edge id=":J8_11" function="internal">
        <lane id=":J8_11_0" index="0" speed="9.26" length="10.42" shape="289.60,-1.60 294.85,-0.85 298.60,1.40 298.98,2.04"/>
    </edge>
    <edge id=":J8_15" function="internal">
        <lane id=":J8_15_0" index="0" speed="9.26" length="8.93" shape="298.98,2.04 300.85,5.15 301.60,10.40"/>
    </edge>

    <edge id="E1" from="J7" to="J8" priority="-1" length="289.60">
        <lane id="E1_0" index="0" speed="50.00" length="289.60" shape="0.00,-4.80 289.60,-4.80"/>
        <lane id="E1_1" index="1" speed="50.00" length="289.60" shape="0.00,-1.60 289.60,-1.60"/>
    </edge>
    <edge id="E2" from="J8" to="J7" priority="-1">
        <lane id="E2_0" index="0" speed="50.00" length="289.60" shape="289.60,4.80 0.00,4.80"/>
        <lane id="E2_1" index="1" speed="50.00" length="289.60" shape="289.60,1.60 0.00,1.60"/>
    </edge>
    <edge id="E3" from="J10" to="J8" priority="-1">
        <lane id="E3_0" index="0" speed="50.00" length="289.60" shape="295.20,300.00 295.20,10.40"/>
        <lane id="E3_1" index="1" speed="50.00" length="289.60" shape="298.40,300.00 298.40,10.40"/>
    </edge>
    <edge id="E4" from="J8" to="J10" priority="-1">
        <lane id="E4_0" index="0" speed="50.00" length="289.60" shape="304.80,10.40 304.80,300.00"/>
        <lane id="E4_1" index="1" speed="50.00" length="289.60" shape="301.60,10.40 301.60,300.00"/>
    </edge>
    <edge id="E5" from="J9" to="J8" priority="-1">
        <lane id="E5_0" index="0" speed="50.00" length="289.60" shape="600.00,4.80 310.40,4.80"/>
        <lane id="E5_1" index="1" speed="50.00" length="289.60" shape="600.00,1.60 310.40,1.60"/>
    </edge>
    <edge id="E6" from="J8" to="J9" priority="-1">
        <lane id="E6_0" index="0" speed="50.00" length="289.60" shape="310.40,-4.80 600.00,-4.80"/>
        <lane id="E6_1" index="1" speed="50.00" length="289.60" shape="310.40,-1.60 600.00,-1.60"/>
    </edge>
    <edge id="E7" from="J11" to="J8" priority="-1">
        <lane id="E7_0" index="0" speed="50.00" length="289.60" shape="304.80,-300.00 304.80,-10.40"/>
        <lane id="E7_1" index="1" speed="50.00" length="289.60" shape="301.60,-300.00 301.60,-10.40"/>
    </edge>
    <edge id="E8" from="J8" to="J11" priority="-1">
        <lane id="E8_0" index="0" speed="50.00" length="289.60" shape="295.20,-10.40 295.20,-300.00"/>
        <lane id="E8_1" index="1" speed="50.00" length="289.60" shape="298.40,-10.40 298.40,-300.00"/>
    </edge>

    <tlLogic id="J8" type="static" programID="0" offset="0">
        <phase duration="1"  state="GGgrrrGGgrrr"/>
        <phase duration="1"  state="yyyrrryyyrrr"/>
        <phase duration="1"  state="GrrGrGGrrGrG"/>
        <phase duration="1"  state="yrryryyrryry"/>
        <phase duration="1"  state="rrrGGgrrrGGg"/>
        <phase duration="1"  state="rrryyyrrryyy"/>
        <phase duration="1"  state="GrGGrrGrGGrr"/>
        <phase duration="1"  state="yryyrryryyrr"/>
    </tlLogic>

    <junction id="J10" type="dead_end" x="300.00" y="300.00" incLanes="E4_0 E4_1" intLanes="" shape="300.00,300.00 306.40,300.00 300.00,300.00"/>
    <junction id="J11" type="dead_end" x="300.00" y="-300.00" incLanes="E8_0 E8_1" intLanes="" shape="300.00,-300.00 293.60,-300.00 300.00,-300.00"/>
    <junction id="J7" type="dead_end" x="0.00" y="0.00" incLanes="E2_0 E2_1" intLanes="" shape="0.00,0.00 0.00,6.40 0.00,0.00"/>
    <junction id="J8" type="traffic_light" x="300.00" y="0.00" incLanes="E3_0 E3_1 E5_0 E5_1 E7_0 E7_1 E1_0 E1_1" intLanes=":J8_0_0 :J8_1_0 :J8_12_0 :J8_3_0 :J8_4_0 :J8_13_0 :J8_6_0 :J8_7_0 :J8_14_0 :J8_9_0 :J8_10_0 :J8_15_0" shape="293.60,10.40 306.40,10.40 306.84,8.18 307.40,7.40 308.18,6.84 309.18,6.51 310.40,6.40 310.40,-6.40 308.18,-6.84 307.40,-7.40 306.84,-8.18 306.51,-9.18 306.40,-10.40 293.60,-10.40 293.16,-8.18 292.60,-7.40 291.82,-6.84 290.82,-6.51 289.60,-6.40 289.60,6.40 291.82,6.84 292.60,7.40 293.16,8.18 293.49,9.18">
        <request index="0"  response="000000000000" foes="000000010000" cont="0"/>
        <request index="1"  response="100000000000" foes="111100010000" cont="0"/>
        <request index="2"  response="100010100000" foes="100010110000" cont="1"/>
        <request index="3"  response="000010000000" foes="000010000000" cont="0"/>
        <request index="4"  response="000010000111" foes="100010000111" cont="0"/>
        <request index="5"  response="010110000100" foes="010110000100" cont="1"/>
        <request index="6"  response="000000000000" foes="010000000000" cont="0"/>
        <request index="7"  response="000000100000" foes="010000111100" cont="0"/>
        <request index="8"  response="100000100010" foes="110000100010" cont="1"/>
        <request index="9"  response="000000000010" foes="000000000010" cont="0"/>
        <request index="10" response="000111000010" foes="000111100010" cont="0"/>
        <request index="11" response="000100010110" foes="000100010110" cont="1"/>
    </junction>
    <junction id="J9" type="dead_end" x="600.00" y="0.00" incLanes="E6_0 E6_1" intLanes="" shape="600.00,0.00 600.00,-6.40 600.00,0.00"/>

    <junction id=":J8_12_0" type="internal" x="302.04" y="1.02" incLanes=":J8_2_0 E7_0" intLanes=":J8_4_0 :J8_5_0 :J8_6_0 :J8_7_0 :J8_10_0 :J8_11_0"/>
    <junction id=":J8_13_0" type="internal" x="301.02" y="-2.04" incLanes=":J8_5_0 E1_0" intLanes=":J8_1_0 :J8_2_0 :J8_7_0 :J8_8_0 :J8_9_0 :J8_10_0"/>
    <junction id=":J8_14_0" type="internal" x="297.96" y="-1.02" incLanes=":J8_8_0 E3_0" intLanes=":J8_0_0 :J8_1_0 :J8_4_0 :J8_5_0 :J8_10_0 :J8_11_0"/>
    <junction id=":J8_15_0" type="internal" x="298.98" y="2.04" incLanes=":J8_11_0 E5_0" intLanes=":J8_1_0 :J8_2_0 :J8_3_0 :J8_4_0 :J8_7_0 :J8_8_0"/>

    <connection from="E1" to="E8" fromLane="0" toLane="0" via=":J8_9_0" tl="J8" linkIndex="9" dir="r" state="o"/>
    <connection from="E1" to="E6" fromLane="0" toLane="0" via=":J8_10_0" tl="J8" linkIndex="10" dir="s" state="o"/>
    <connection from="E1" to="E4" fromLane="1" toLane="1" via=":J8_11_0" tl="J8" linkIndex="11" dir="l" state="o"/>
    <connection from="E3" to="E2" fromLane="0" toLane="0" via=":J8_0_0" tl="J8" linkIndex="0" dir="r" state="O"/>
    <connection from="E3" to="E8" fromLane="0" toLane="0" via=":J8_1_0" tl="J8" linkIndex="1" dir="s" state="O"/>
    <connection from="E3" to="E6" fromLane="1" toLane="1" via=":J8_2_0" tl="J8" linkIndex="2" dir="l" state="o"/>
    <connection from="E5" to="E4" fromLane="0" toLane="0" via=":J8_3_0" tl="J8" linkIndex="3" dir="r" state="o"/>
    <connection from="E5" to="E2" fromLane="0" toLane="0" via=":J8_4_0" tl="J8" linkIndex="4" dir="s" state="o"/>
    <connection from="E5" to="E8" fromLane="1" toLane="1" via=":J8_5_0" tl="J8" linkIndex="5" dir="l" state="o"/>
    <connection from="E7" to="E6" fromLane="0" toLane="0" via=":J8_6_0" tl="J8" linkIndex="6" dir="r" state="O"/>
    <connection from="E7" to="E4" fromLane="0" toLane="0" via=":J8_7_0" tl="J8" linkIndex="7" dir="s" state="O"/>
    <connection from="E7" to="E2" fromLane="1" toLane="1" via=":J8_8_0" tl="J8" linkIndex="8" dir="l" state="o"/>

    <connection from=":J8_0" to="E2" fromLane="0" toLane="0" dir="r" state="M"/>
    <connection from=":J8_1" to="E8" fromLane="0" toLane="0" dir="s" state="M"/>
    <connection from=":J8_2" to="E6" fromLane="0" toLane="1" via=":J8_12_0" dir="l" state="m"/>
    <connection from=":J8_12" to="E6" fromLane="0" toLane="1" dir="l" state="M"/>
    <connection from=":J8_3" to="E4" fromLane="0" toLane="0" dir="r" state="M"/>
    <connection from=":J8_4" to="E2" fromLane="0" toLane="0" dir="s" state="M"/>
    <connection from=":J8_5" to="E8" fromLane="0" toLane="1" via=":J8_13_0" dir="l" state="m"/>
    <connection from=":J8_13" to="E8" fromLane="0" toLane="1" dir="l" state="M"/>
    <connection from=":J8_6" to="E6" fromLane="0" toLane="0" dir="r" state="M"/>
    <connection from=":J8_7" to="E4" fromLane="0" toLane="0" dir="s" state="M"/>
    <connection from=":J8_8" to="E2" fromLane="0" toLane="1" via=":J8_14_0" dir="l" state="m"/>
    <connection from=":J8_14" to="E2" fromLane="0" toLane="1" dir="l" state="M"/>
    <connection from=":J8_9" to="E8" fromLane="0" toLane="0" dir="r" state="M"/>
    <connection from=":J8_10" to="E6" fromLane="0" toLane="0" dir="s" state="M"/>
    <connection from=":J8_11" to="E4" fromLane="0" toLane="1" via=":J8_15_0" dir="l" state="m"/>
    <connection from=":J8_15" to="E4" fromLane="0" toLane="1" dir="l" state="M"/>

</net>
