<?xml version="1.0" encoding="UTF-8"?>

<!-- generated on 2025-04-17 12:46:52 by Eclipse SUMO netedit Version 1.18.0
<configuration xmlns:xsi="http://www.w3.org/2001/XMLSchema-instance" xsi:noNamespaceSchemaLocation="http://sumo.dlr.de/xsd/neteditConfiguration.xsd">

    <input>
        <sumo-net-file value="/home/nicklas/Documents/DAS_semester2/bio/swarm_project/sumo/world_grid_5_tls_2_lanes.net.xml"/>
    </input>

    <output>
        <output-file value="/home/nicklas/Documents/DAS_semester2/bio/swarm_project/sumo/world_grid_5_tls_2_lanes.net.xml"/>
    </output>

    <processing>
        <offset.disable-normalization value="true"/>
    </processing>

    <junctions>
        <no-turnarounds value="true"/>
    </junctions>

    <netedit>
        <new-network value="false"/>
    </netedit>

</configuration>
-->

<net version="1.16" junctionCornerDetail="5" limitTurnSpeed="5.50" xmlns:xsi="http://www.w3.org/2001/XMLSchema-instance" xsi:noNamespaceSchemaLocation="http://sumo.dlr.de/xsd/net_file.xsd">

    <location netOffset="0.00,0.00" convBoundary="-100.00,-100.00,100.00,100.00" origBoundary="10000000000.00,10000000000.00,-10000000000.00,-10000000000.00" projParameter="!"/>

    <edge id=":J10_0" function="internal">
        <lane id=":J10_0_0" index="0" speed="8.96" length="18.06" shape="104.80,93.60 104.10,98.50 102.00,102.00 98.50,104.10 93.60,104.80"/>
        <lane id=":J10_0_1" index="1" speed="7.66" length="12.90" shape="101.60,93.60 101.10,97.10 99.60,99.60 97.10,101.10 93.60,101.60"/>
    </edge>
    <edge id=":J10_2" function="internal">
        <lane id=":J10_2_0" index="0" speed="3.90" length="2.58" shape="93.60,95.20 94.30,95.10 94.80,94.80 95.10,94.30 95.20,93.60"/>
        <lane id=":J10_2_1" index="1" speed="6.08" length="7.74" shape="93.60,98.40 95.70,98.10 97.20,97.20 98.10,95.70 98.40,93.60"/>
    </edge>
    <edge id=":J11_0" function="internal">
        <lane id=":J11_0_0" index="0" speed="50.00" length="20.80" shape="-104.80,10.40 -104.80,-10.40"/>
    </edge>
    <edge id=":J11_1" function="internal">
        <lane id=":J11_1_0" index="0" speed="9.26" length="5.01" shape="-101.60,10.40 -100.89,5.44"/>
    </edge>
    <edge id=":J11_6" function="internal">
        <lane id=":J11_6_0" index="0" speed="9.26" length="14.34" shape="-100.89,5.44 -100.85,5.15 -98.60,1.40 -94.85,-0.85 -89.60,-1.60"/>
    </edge>
    <edge id=":J11_2" function="internal">
        <lane id=":J11_2_0" index="0" speed="6.51" length="9.03" shape="-89.60,4.80 -92.05,5.15 -93.80,6.20 -94.85,7.95 -95.20,10.40"/>
    </edge>
    <edge id=":J11_3" function="internal">
        <lane id=":J11_3_0" index="0" speed="9.26" length="19.35" shape="-89.60,1.60 -94.85,0.85 -98.60,-1.40 -100.85,-5.15 -101.60,-10.40"/>
    </edge>
    <edge id=":J11_4" function="internal">
        <lane id=":J11_4_0" index="0" speed="6.51" length="9.03" shape="-95.20,-10.40 -94.85,-7.95 -93.80,-6.20 -92.05,-5.15 -89.60,-4.80"/>
    </edge>
    <edge id=":J11_5" function="internal">
        <lane id=":J11_5_0" index="0" speed="50.00" length="20.80" shape="-98.40,-10.40 -98.40,10.40"/>
    </edge>
    <edge id=":J12_0" function="internal">
        <lane id=":J12_0_0" index="0" speed="6.51" length="9.03" shape="-4.80,10.40 -5.15,7.95 -6.20,6.20 -7.95,5.15 -10.40,4.80"/>
    </edge>
    <edge id=":J12_1" function="internal">
        <lane id=":J12_1_0" index="0" speed="50.00" length="20.80" shape="-4.80,10.40 -4.80,-10.40"/>
    </edge>
    <edge id=":J12_2" function="internal">
        <lane id=":J12_2_0" index="0" speed="9.26" length="10.42" shape="-1.60,10.40 -0.85,5.15 1.40,1.40 2.04,1.02"/>
    </edge>
    <edge id=":J12_12" function="internal">
        <lane id=":J12_12_0" index="0" speed="9.26" length="8.93" shape="2.04,1.02 5.15,-0.85 10.40,-1.60"/>
    </edge>
    <edge id=":J12_3" function="internal">
        <lane id=":J12_3_0" index="0" speed="6.51" length="9.03" shape="10.40,4.80 7.95,5.15 6.20,6.20 5.15,7.95 4.80,10.40"/>
    </edge>
    <edge id=":J12_4" function="internal">
        <lane id=":J12_4_0" index="0" speed="50.00" length="20.80" shape="10.40,4.80 -10.40,4.80"/>
    </edge>
    <edge id=":J12_5" function="internal">
        <lane id=":J12_5_0" index="0" speed="9.26" length="10.42" shape="10.40,1.60 5.15,0.85 1.40,-1.40 1.02,-2.04"/>
    </edge>
    <edge id=":J12_13" function="internal">
        <lane id=":J12_13_0" index="0" speed="9.26" length="8.93" shape="1.02,-2.04 -0.85,-5.15 -1.60,-10.40"/>
    </edge>
    <edge id=":J12_6" function="internal">
        <lane id=":J12_6_0" index="0" speed="6.51" length="9.03" shape="4.80,-10.40 5.15,-7.95 6.20,-6.20 7.95,-5.15 10.40,-4.80"/>
    </edge>
    <edge id=":J12_7" function="internal">
        <lane id=":J12_7_0" index="0" speed="50.00" length="20.80" shape="4.80,-10.40 4.80,10.40"/>
    </edge>
    <edge id=":J12_8" function="internal">
        <lane id=":J12_8_0" index="0" speed="9.26" length="10.42" shape="1.60,-10.40 0.85,-5.15 -1.40,-1.40 -2.04,-1.02"/>
    </edge>
    <edge id=":J12_14" function="internal">
        <lane id=":J12_14_0" index="0" speed="9.26" length="8.93" shape="-2.04,-1.02 -5.15,0.85 -10.40,1.60"/>
    </edge>
    <edge id=":J12_9" function="internal">
        <lane id=":J12_9_0" index="0" speed="6.51" length="9.03" shape="-10.40,-4.80 -7.95,-5.15 -6.20,-6.20 -5.15,-7.95 -4.80,-10.40"/>
    </edge>
    <edge id=":J12_10" function="internal">
        <lane id=":J12_10_0" index="0" speed="50.00" length="20.80" shape="-10.40,-4.80 10.40,-4.80"/>
    </edge>
    <edge id=":J12_11" function="internal">
        <lane id=":J12_11_0" index="0" speed="9.26" length="10.42" shape="-10.40,-1.60 -5.15,-0.85 -1.40,1.40 -1.02,2.04"/>
    </edge>
    <edge id=":J12_15" function="internal">
        <lane id=":J12_15_0" index="0" speed="9.26" length="8.93" shape="-1.02,2.04 0.85,5.15 1.60,10.40"/>
    </edge>
    <edge id=":J13_0" function="internal">
        <lane id=":J13_0_0" index="0" speed="6.51" length="9.03" shape="95.20,10.40 94.85,7.95 93.80,6.20 92.05,5.15 89.60,4.80"/>
    </edge>
    <edge id=":J13_1" function="internal">
        <lane id=":J13_1_0" index="0" speed="50.00" length="20.80" shape="98.40,10.40 98.40,-10.40"/>
    </edge>
    <edge id=":J13_2" function="internal">
        <lane id=":J13_2_0" index="0" speed="50.00" length="20.80" shape="104.80,-10.40 104.80,10.40"/>
    </edge>
    <edge id=":J13_3" function="internal">
        <lane id=":J13_3_0" index="0" speed="9.26" length="5.01" shape="101.60,-10.40 100.89,-5.44"/>
    </edge>
    <edge id=":J13_6" function="internal">
        <lane id=":J13_6_0" index="0" speed="9.26" length="14.34" shape="100.89,-5.44 100.85,-5.15 98.60,-1.40 94.85,0.85 89.60,1.60"/>
    </edge>
    <edge id=":J13_4" function="internal">
        <lane id=":J13_4_0" index="0" speed="6.51" length="9.03" shape="89.60,-4.80 92.05,-5.15 93.80,-6.20 94.85,-7.95 95.20,-10.40"/>
    </edge>
    <edge id=":J13_5" function="internal">
        <lane id=":J13_5_0" index="0" speed="9.26" length="19.35" shape="89.60,-1.60 94.85,-0.85 98.60,1.40 100.85,5.15 101.60,10.40"/>
    </edge>
    <edge id=":J14_0" function="internal">
        <lane id=":J14_0_0" index="0" speed="8.96" length="18.06" shape="-104.80,-93.60 -104.10,-98.50 -102.00,-102.00 -98.50,-104.10 -93.60,-104.80"/>
        <lane id=":J14_0_1" index="1" speed="7.66" length="12.90" shape="-101.60,-93.60 -101.10,-97.10 -99.60,-99.60 -97.10,-101.10 -93.60,-101.60"/>
    </edge>
    <edge id=":J14_2" function="internal">
        <lane id=":J14_2_0" index="0" speed="3.90" length="2.58" shape="-93.60,-95.20 -94.30,-95.10 -94.80,-94.80 -95.10,-94.30 -95.20,-93.60"/>
        <lane id=":J14_2_1" index="1" speed="6.08" length="7.74" shape="-93.60,-98.40 -95.70,-98.10 -97.20,-97.20 -98.10,-95.70 -98.40,-93.60"/>
    </edge>
    <edge id=":J15_0" function="internal">
        <lane id=":J15_0_0" index="0" speed="6.51" length="9.03" shape="-4.80,-89.60 -5.15,-92.05 -6.20,-93.80 -7.95,-94.85 -10.40,-95.20"/>
    </edge>
    <edge id=":J15_1" function="internal">
        <lane id=":J15_1_0" index="0" speed="9.26" length="19.35" shape="-1.60,-89.60 -0.85,-94.85 1.40,-98.60 5.15,-100.85 10.40,-101.60"/>
    </edge>
    <edge id=":J15_2" function="internal">
        <lane id=":J15_2_0" index="0" speed="6.51" length="9.03" shape="10.40,-95.20 7.95,-94.85 6.20,-93.80 5.15,-92.05 4.80,-89.60"/>
    </edge>
    <edge id=":J15_3" function="internal">
        <lane id=":J15_3_0" index="0" speed="50.00" length="20.80" shape="10.40,-98.40 -10.40,-98.40"/>
    </edge>
    <edge id=":J15_4" function="internal">
        <lane id=":J15_4_0" index="0" speed="50.00" length="20.80" shape="-10.40,-104.80 10.40,-104.80"/>
    </edge>
    <edge id=":J15_5" function="internal">
        <lane id=":J15_5_0" index="0" speed="9.26" length="5.01" shape="-10.40,-101.60 -5.44,-100.89"/>
    </edge>
    <edge id=":J15_6" function="internal">
        <lane id=":J15_6_0" index="0" speed="9.26" length="14.34" shape="-5.44,-100.89 -5.15,-100.85 -1.40,-98.60 0.85,-94.85 1.60,-89.60"/>
    </edge>
    <edge id=":J16_0" function="internal">
        <lane id=":J16_0_0" index="0" speed="3.90" length="2.58" shape="95.20,-93.60 95.10,-94.30 94.80,-94.80 94.30,-95.10 93.60,-95.20"/>
        <lane id=":J16_0_1" index="1" speed="6.08" length="7.74" shape="98.40,-93.60 98.10,-95.70 97.20,-97.20 95.70,-98.10 93.60,-98.40"/>
    </edge>
    <edge id=":J16_2" function="internal">
        <lane id=":J16_2_0" index="0" speed="8.96" length="18.06" shape="93.60,-104.80 98.50,-104.10 102.00,-102.00 104.10,-98.50 104.80,-93.60"/>
        <lane id=":J16_2_1" index="1" speed="7.66" length="12.90" shape="93.60,-101.60 97.10,-101.10 99.60,-99.60 101.10,-97.10 101.60,-93.60"/>
    </edge>
    <edge id=":J8_0" function="internal">
        <lane id=":J8_0_0" index="0" speed="8.96" length="18.06" shape="-93.60,104.80 -98.50,104.10 -102.00,102.00 -104.10,98.50 -104.80,93.60"/>
        <lane id=":J8_0_1" index="1" speed="7.66" length="12.90" shape="-93.60,101.60 -97.10,101.10 -99.60,99.60 -101.10,97.10 -101.60,93.60"/>
    </edge>
    <edge id=":J8_2" function="internal">
        <lane id=":J8_2_0" index="0" speed="3.90" length="2.58" shape="-95.20,93.60 -95.10,94.30 -94.80,94.80 -94.30,95.10 -93.60,95.20"/>
        <lane id=":J8_2_1" index="1" speed="6.08" length="7.74" shape="-98.40,93.60 -98.10,95.70 -97.20,97.20 -95.70,98.10 -93.60,98.40"/>
    </edge>
    <edge id=":J9_0" function="internal">
        <lane id=":J9_0_0" index="0" speed="50.00" length="20.80" shape="10.40,104.80 -10.40,104.80"/>
    </edge>
    <edge id=":J9_1" function="internal">
        <lane id=":J9_1_0" index="0" speed="9.26" length="5.01" shape="10.40,101.60 5.44,100.89"/>
    </edge>
    <edge id=":J9_6" function="internal">
        <lane id=":J9_6_0" index="0" speed="9.26" length="14.34" shape="5.44,100.89 5.15,100.85 1.40,98.60 -0.85,94.85 -1.60,89.60"/>
    </edge>
    <edge id=":J9_2" function="internal">
        <lane id=":J9_2_0" index="0" speed="6.51" length="9.03" shape="4.80,89.60 5.15,92.05 6.20,93.80 7.95,94.85 10.40,95.20"/>
    </edge>
    <edge id=":J9_3" function="internal">
        <lane id=":J9_3_0" index="0" speed="9.26" length="19.35" shape="1.60,89.60 0.85,94.85 -1.40,98.60 -5.15,100.85 -10.40,101.60"/>
    </edge>
    <edge id=":J9_4" function="internal">
        <lane id=":J9_4_0" index="0" speed="6.51" length="9.03" shape="-10.40,95.20 -7.95,94.85 -6.20,93.80 -5.15,92.05 -4.80,89.60"/>
    </edge>
    <edge id=":J9_5" function="internal">
        <lane id=":J9_5_0" index="0" speed="50.00" length="20.80" shape="-10.40,98.40 10.40,98.40"/>
    </edge>

    <edge id="-E11" from="J9" to="J8" priority="-1">
        <lane id="-E11_0" index="0" speed="50.00" length="83.20" shape="-10.40,104.80 -93.60,104.80"/>
        <lane id="-E11_1" index="1" speed="50.00" length="83.20" shape="-10.40,101.60 -93.60,101.60"/>
    </edge>
    <edge id="-E12" from="J10" to="J9" priority="-1">
        <lane id="-E12_0" index="0" speed="50.00" length="83.20" shape="93.60,104.80 10.40,104.80"/>
        <lane id="-E12_1" index="1" speed="50.00" length="83.20" shape="93.60,101.60 10.40,101.60"/>
    </edge>
    <edge id="-E13" from="J11" to="J8" priority="-1">
        <lane id="-E13_0" index="0" speed="50.00" length="83.20" shape="-95.20,10.40 -95.20,93.60"/>
        <lane id="-E13_1" index="1" speed="50.00" length="83.20" shape="-98.40,10.40 -98.40,93.60"/>
    </edge>
    <edge id="-E14" from="J12" to="J11" priority="-1">
        <lane id="-E14_0" index="0" speed="50.00" length="79.20" shape="-10.40,4.80 -89.60,4.80"/>
        <lane id="-E14_1" index="1" speed="50.00" length="79.20" shape="-10.40,1.60 -89.60,1.60"/>
    </edge>
    <edge id="-E15" from="J9" to="J12" priority="-1">
        <lane id="-E15_0" index="0" speed="50.00" length="79.20" shape="-4.80,89.60 -4.80,10.40"/>
        <lane id="-E15_1" index="1" speed="50.00" length="79.20" shape="-1.60,89.60 -1.60,10.40"/>
    </edge>
    <edge id="-E16" from="J13" to="J12" priority="-1">
        <lane id="-E16_0" index="0" speed="50.00" length="79.20" shape="89.60,4.80 10.40,4.80"/>
        <lane id="-E16_1" index="1" speed="50.00" length="79.20" shape="89.60,1.60 10.40,1.60"/>
    </edge>
    <edge id="-E17" from="J10" to="J13" priority="-1">
        <lane id="-E17_0" index="0" speed="50.00" length="83.20" shape="95.20,93.60 95.20,10.40"/>
        <lane id="-E17_1" index="1" speed="50.00" length="83.20" shape="98.40,93.60 98.40,10.40"/>
    </edge>
    <edge id="-E18" from="J14" to="J11" priority="-1">
        <lane id="-E18_0" index="0" speed="50.00" length="83.20" shape="-95.20,-93.60 -95.20,-10.40"/>
        <lane id="-E18_1" index="1" speed="50.00" length="83.20" shape="-98.40,-93.60 -98.40,-10.40"/>
    </edge>
    <edge id="-E19" from="J15" to="J14" priority="-1">
        <lane id="-E19_0" index="0" speed="50.00" length="83.20" shape="-10.40,-95.20 -93.60,-95.20"/>
        <lane id="-E19_1" index="1" speed="50.00" length="83.20" shape="-10.40,-98.40 -93.60,-98.40"/>
    </edge>
    <edge id="-E20" from="J12" to="J15" priority="-1">
        <lane id="-E20_0" index="0" speed="50.00" length="79.20" shape="-4.80,-10.40 -4.80,-89.60"/>
        <lane id="-E20_1" index="1" speed="50.00" length="79.20" shape="-1.60,-10.40 -1.60,-89.60"/>
    </edge>
    <edge id="-E21" from="J16" to="J15" priority="-1">
        <lane id="-E21_0" index="0" speed="50.00" length="83.20" shape="93.60,-95.20 10.40,-95.20"/>
        <lane id="-E21_1" index="1" speed="50.00" length="83.20" shape="93.60,-98.40 10.40,-98.40"/>
    </edge>
    <edge id="-E22" from="J13" to="J16" priority="-1">
        <lane id="-E22_0" index="0" speed="50.00" length="83.20" shape="95.20,-10.40 95.20,-93.60"/>
        <lane id="-E22_1" index="1" speed="50.00" length="83.20" shape="98.40,-10.40 98.40,-93.60"/>
    </edge>
    <edge id="E11" from="J8" to="J9" priority="-1">
        <lane id="E11_0" index="0" speed="50.00" length="83.20" shape="-93.60,95.20 -10.40,95.20"/>
        <lane id="E11_1" index="1" speed="50.00" length="83.20" shape="-93.60,98.40 -10.40,98.40"/>
    </edge>
    <edge id="E12" from="J9" to="J10" priority="-1">
        <lane id="E12_0" index="0" speed="50.00" length="83.20" shape="10.40,95.20 93.60,95.20"/>
        <lane id="E12_1" index="1" speed="50.00" length="83.20" shape="10.40,98.40 93.60,98.40"/>
    </edge>
    <edge id="E13" from="J8" to="J11" priority="-1">
        <lane id="E13_0" index="0" speed="50.00" length="83.20" shape="-104.80,93.60 -104.80,10.40"/>
        <lane id="E13_1" index="1" speed="50.00" length="83.20" shape="-101.60,93.60 -101.60,10.40"/>
    </edge>
    <edge id="E14" from="J11" to="J12" priority="-1">
        <lane id="E14_0" index="0" speed="50.00" length="79.20" shape="-89.60,-4.80 -10.40,-4.80"/>
        <lane id="E14_1" index="1" speed="50.00" length="79.20" shape="-89.60,-1.60 -10.40,-1.60"/>
    </edge>
    <edge id="E15" from="J12" to="J9" priority="-1">
        <lane id="E15_0" index="0" speed="50.00" length="79.20" shape="4.80,10.40 4.80,89.60"/>
        <lane id="E15_1" index="1" speed="50.00" length="79.20" shape="1.60,10.40 1.60,89.60"/>
    </edge>
    <edge id="E16" from="J12" to="J13" priority="-1">
        <lane id="E16_0" index="0" speed="50.00" length="79.20" shape="10.40,-4.80 89.60,-4.80"/>
        <lane id="E16_1" index="1" speed="50.00" length="79.20" shape="10.40,-1.60 89.60,-1.60"/>
    </edge>
    <edge id="E17" from="J13" to="J10" priority="-1">
        <lane id="E17_0" index="0" speed="50.00" length="83.20" shape="104.80,10.40 104.80,93.60"/>
        <lane id="E17_1" index="1" speed="50.00" length="83.20" shape="101.60,10.40 101.60,93.60"/>
    </edge>
    <edge id="E18" from="J11" to="J14" priority="-1">
        <lane id="E18_0" index="0" speed="50.00" length="83.20" shape="-104.80,-10.40 -104.80,-93.60"/>
        <lane id="E18_1" index="1" speed="50.00" length="83.20" shape="-101.60,-10.40 -101.60,-93.60"/>
    </edge>
    <edge id="E19" from="J14" to="J15" priority="-1">
        <lane id="E19_0" index="0" speed="50.00" length="83.20" shape="-93.60,-104.80 -10.40,-104.80"/>
        <lane id="E19_1" index="1" speed="50.00" length="83.20" shape="-93.60,-101.60 -10.40,-101.60"/>
    </edge>
    <edge id="E20" from="J15" to="J12" priority="-1">
        <lane id="E20_0" index="0" speed="50.00" length="79.20" shape="4.80,-89.60 4.80,-10.40"/>
        <lane id="E20_1" index="1" speed="50.00" length="79.20" shape="1.60,-89.60 1.60,-10.40"/>
    </edge>
    <edge id="E21" from="J15" to="J16" priority="-1">
        <lane id="E21_0" index="0" speed="50.00" length="83.20" shape="10.40,-104.80 93.60,-104.80"/>
        <lane id="E21_1" index="1" speed="50.00" length="83.20" shape="10.40,-101.60 93.60,-101.60"/>
    </edge>
    <edge id="E22" from="J16" to="J13" priority="-1">
        <lane id="E22_0" index="0" speed="50.00" length="83.20" shape="104.80,-93.60 104.80,-10.40"/>
        <lane id="E22_1" index="1" speed="50.00" length="83.20" shape="101.60,-93.60 101.60,-10.40"/>
    </edge>

    <tlLogic id="J11" type="static" programID="0" offset="0">
        <phase duration="1"  state="GgrrGG"/>
        <phase duration="1"  state="yyrryy"/>
        <phase duration="1"  state="GGrrrr"/>
        <phase duration="1"  state="yyrrrr"/>
        <phase duration="1"  state="rrGGGr"/>
        <phase duration="1"  state="rryyyr"/>
    </tlLogic>
    <tlLogic id="J12" type="static" programID="0" offset="0">
        <phase duration="1"  state="GGgrrrGGgrrr"/>
        <phase duration="1"  state="yyyrrryyyrrr"/>
        <phase duration="1"  state="rrGGrrrrGGrr"/>
        <phase duration="1"  state="rryyrrrryyrr"/>
        <phase duration="1"  state="rrrGGgrrrGGg"/>
        <phase duration="1"  state="rrryyyrrryyy"/>
        <phase duration="1"  state="GrrrrGGrrrrG"/>
        <phase duration="1"  state="yrrrryyrrrry"/>
    </tlLogic>
    <tlLogic id="J13" type="static" programID="0" offset="0">
        <phase duration="1"  state="GGGgrr"/>
        <phase duration="1"  state="yyyyrr"/>
        <phase duration="1"  state="rrGGGr"/>
        <phase duration="1"  state="rryyyr"/>
        <phase duration="1"  state="GrrrGG"/>
        <phase duration="1"  state="yrrryy"/>
    </tlLogic>
    <tlLogic id="J15" type="static" programID="0" offset="0">
        <phase duration="1"  state="rrGGGg"/>
        <phase duration="1"  state="rryyyy"/>
        <phase duration="1"  state="GrrrGG"/>
        <phase duration="1"  state="yrrryy"/>
        <phase duration="1"  state="GGGrrr"/>
        <phase duration="1"  state="yyyrrr"/>
    </tlLogic>
    <tlLogic id="J9" type="static" programID="0" offset="0">
        <phase duration="1"  state="GgrrrGG"/>
        <phase duration="1"  state="yyrrryy"/>
        <phase duration="1"  state="GGrrrrr"/>
        <phase duration="1"  state="yyrrrrr"/>
        <phase duration="1"  state="rrGGGGr"/>
        <phase duration="1"  state="rryyyyr"/>
    </tlLogic>

    <junction id="J10" type="priority" x="100.00" y="100.00" incLanes="E17_0 E17_1 E12_0 E12_1" intLanes=":J10_0_0 :J10_0_1 :J10_2_0 :J10_2_1" shape="106.40,93.60 93.60,93.60 93.60,106.40 97.51,106.04 100.71,104.98 103.20,103.20 104.98,100.71 106.04,97.51">
        <request index="0" response="0000" foes="0000" cont="0"/>
        <request index="1" response="0000" foes="0000" cont="0"/>
        <request index="2" response="0000" foes="0000" cont="0"/>
        <request index="3" response="0000" foes="0000" cont="0"/>
    </junction>
    <junction id="J11" type="traffic_light" x="-100.00" y="0.00" incLanes="E13_0 E13_1 -E14_0 -E14_1 -E18_0 -E18_1" intLanes=":J11_0_0 :J11_6_0 :J11_2_0 :J11_3_0 :J11_4_0 :J11_5_0" shape="-106.40,10.40 -93.60,10.40 -93.16,8.18 -92.60,7.40 -91.82,6.84 -90.82,6.51 -89.60,6.40 -89.60,-6.40 -91.82,-6.84 -92.60,-7.40 -93.16,-8.18 -93.49,-9.18 -93.60,-10.40 -106.40,-10.40">
        <request index="0" response="000000" foes="000000" cont="0"/>
        <request index="1" response="100000" foes="101000" cont="1"/>
        <request index="2" response="000000" foes="000000" cont="0"/>
        <request index="3" response="100010" foes="100010" cont="0"/>
        <request index="4" response="000000" foes="000000" cont="0"/>
        <request index="5" response="000000" foes="001010" cont="0"/>
    </junction>
    <junction id="J12" type="traffic_light" x="0.00" y="0.00" incLanes="-E15_0 -E15_1 -E16_0 -E16_1 E20_0 E20_1 E14_0 E14_1" intLanes=":J12_0_0 :J12_1_0 :J12_12_0 :J12_3_0 :J12_4_0 :J12_13_0 :J12_6_0 :J12_7_0 :J12_14_0 :J12_9_0 :J12_10_0 :J12_15_0" shape="-6.40,10.40 6.40,10.40 6.84,8.18 7.40,7.40 8.18,6.84 9.18,6.51 10.40,6.40 10.40,-6.40 8.18,-6.84 7.40,-7.40 6.84,-8.18 6.51,-9.18 6.40,-10.40 -6.40,-10.40 -6.84,-8.18 -7.40,-7.40 -8.18,-6.84 -9.18,-6.51 -10.40,-6.40 -10.40,6.40 -8.18,6.84 -7.40,7.40 -6.84,8.18 -6.51,9.18">
        <request index="0"  response="000000000000" foes="000000010000" cont="0"/>
        <request index="1"  response="100000000000" foes="111100010000" cont="0"/>
        <request index="2"  response="100010100000" foes="100010110000" cont="1"/>
        <request index="3"  response="000010000000" foes="000010000000" cont="0"/>
        <request index="4"  response="000010000111" foes="100010000111" cont="0"/>
        <request index="5"  response="010110000100" foes="010110000100" cont="1"/>
        <request index="6"  response="000000000000" foes="010000000000" cont="0"/>
        <request index="7"  response="000000100000" foes="010000111100" cont="0"/>
        <request index="8"  response="100000100010" foes="110000100010" cont="1"/>
        <request index="9"  response="000000000010" foes="000000000010" cont="0"/>
        <request index="10" response="000111000010" foes="000111100010" cont="0"/>
        <request index="11" response="000100010110" foes="000100010110" cont="1"/>
    </junction>
    <junction id="J13" type="traffic_light" x="100.00" y="0.00" incLanes="-E17_0 -E17_1 E22_0 E22_1 E16_0 E16_1" intLanes=":J13_0_0 :J13_1_0 :J13_2_0 :J13_6_0 :J13_4_0 :J13_5_0" shape="93.60,10.40 106.40,10.40 106.40,-10.40 93.60,-10.40 93.16,-8.18 92.60,-7.40 91.82,-6.84 90.82,-6.51 89.60,-6.40 89.60,6.40 91.82,6.84 92.60,7.40 93.16,8.18 93.49,9.18">
        <request index="0" response="000000" foes="000000" cont="0"/>
        <request index="1" response="000000" foes="101000" cont="0"/>
        <request index="2" response="000000" foes="000000" cont="0"/>
        <request index="3" response="000010" foes="100010" cont="1"/>
        <request index="4" response="000000" foes="000000" cont="0"/>
        <request index="5" response="001010" foes="001010" cont="0"/>
    </junction>
    <junction id="J14" type="priority" x="-100.00" y="-100.00" incLanes="E18_0 E18_1 -E19_0 -E19_1" intLanes=":J14_0_0 :J14_0_1 :J14_2_0 :J14_2_1" shape="-106.40,-93.60 -93.60,-93.60 -93.60,-106.40 -97.51,-106.04 -100.71,-104.98 -103.20,-103.20 -104.98,-100.71 -106.04,-97.51">
        <request index="0" response="0000" foes="0000" cont="0"/>
        <request index="1" response="0000" foes="0000" cont="0"/>
        <request index="2" response="0000" foes="0000" cont="0"/>
        <request index="3" response="0000" foes="0000" cont="0"/>
    </junction>
    <junction id="J15" type="traffic_light" x="0.00" y="-100.00" incLanes="-E20_0 -E20_1 -E21_0 -E21_1 E19_0 E19_1" intLanes=":J15_0_0 :J15_1_0 :J15_2_0 :J15_3_0 :J15_4_0 :J15_6_0" shape="-6.40,-89.60 6.40,-89.60 6.84,-91.82 7.40,-92.60 8.18,-93.16 9.18,-93.49 10.40,-93.60 10.40,-106.40 -10.40,-106.40 -10.40,-93.60 -8.18,-93.16 -7.40,-92.60 -6.84,-91.82 -6.51,-90.82">
        <request index="0" response="000000" foes="000000" cont="0"/>
        <request index="1" response="101000" foes="101000" cont="0"/>
        <request index="2" response="000000" foes="000000" cont="0"/>
        <request index="3" response="000000" foes="100010" cont="0"/>
        <request index="4" response="000000" foes="000000" cont="0"/>
        <request index="5" response="001000" foes="001010" cont="1"/>
    </junction>
    <junction id="J16" type="priority" x="100.00" y="-100.00" incLanes="-E22_0 -E22_1 E21_0 E21_1" intLanes=":J16_0_0 :J16_0_1 :J16_2_0 :J16_2_1" shape="93.60,-93.60 106.40,-93.60 106.04,-97.51 104.98,-100.71 103.20,-103.20 100.71,-104.98 97.51,-106.04 93.60,-106.40">
        <request index="0" response="0000" foes="0000" cont="0"/>
        <request index="1" response="0000" foes="0000" cont="0"/>
        <request index="2" response="0000" foes="0000" cont="0"/>
        <request index="3" response="0000" foes="0000" cont="0"/>
    </junction>
    <junction id="J8" type="priority" x="-100.00" y="100.00" incLanes="-E11_0 -E11_1 -E13_0 -E13_1" intLanes=":J8_0_0 :J8_0_1 :J8_2_0 :J8_2_1" shape="-93.60,106.40 -93.60,93.60 -106.40,93.60 -106.04,97.51 -104.98,100.71 -103.20,103.20 -100.71,104.98 -97.51,106.04">
        <request index="0" response="0000" foes="0000" cont="0"/>
        <request index="1" response="0000" foes="0000" cont="0"/>
        <request index="2" response="0000" foes="0000" cont="0"/>
        <request index="3" response="0000" foes="0000" cont="0"/>
    </junction>
    <junction id="J9" type="traffic_light" x="0.00" y="100.00" incLanes="-E12_0 -E12_1 E15_0 E15_1 E11_0 E11_1" intLanes=":J9_0_0 :J9_6_0 :J9_2_0 :J9_3_0 :J9_4_0 :J9_5_0" shape="10.40,106.40 10.40,93.60 8.18,93.16 7.40,92.60 6.84,91.82 6.51,90.82 6.40,89.60 -6.40,89.60 -6.84,91.82 -7.40,92.60 -8.18,93.16 -9.18,93.49 -10.40,93.60 -10.40,106.40">
        <request index="0" response="000000" foes="000000" cont="0"/>
        <request index="1" response="100000" foes="101000" cont="1"/>
        <request index="2" response="000000" foes="000000" cont="0"/>
        <request index="3" response="100010" foes="100010" cont="0"/>
        <request index="4" response="000000" foes="000000" cont="0"/>
        <request index="5" response="000000" foes="001010" cont="0"/>
    </junction>

    <junction id=":J11_6_0" type="internal" x="-100.89" y="5.44" incLanes=":J11_1_0 -E18_1" intLanes=":J11_3_0 :J11_5_0"/>
    <junction id=":J12_12_0" type="internal" x="2.04" y="1.02" incLanes=":J12_2_0 E20_0" intLanes=":J12_4_0 :J12_5_0 :J12_6_0 :J12_7_0 :J12_10_0 :J12_11_0"/>
    <junction id=":J12_13_0" type="internal" x="1.02" y="-2.04" incLanes=":J12_5_0 E14_0" intLanes=":J12_1_0 :J12_2_0 :J12_7_0 :J12_8_0 :J12_9_0 :J12_10_0"/>
    <junction id=":J12_14_0" type="internal" x="-2.04" y="-1.02" incLanes=":J12_8_0 -E15_0" intLanes=":J12_0_0 :J12_1_0 :J12_4_0 :J12_5_0 :J12_10_0 :J12_11_0"/>
    <junction id=":J12_15_0" type="internal" x="-1.02" y="2.04" incLanes=":J12_11_0 -E16_0" intLanes=":J12_1_0 :J12_2_0 :J12_3_0 :J12_4_0 :J12_7_0 :J12_8_0"/>
    <junction id=":J13_6_0" type="internal" x="100.89" y="-5.44" incLanes=":J13_3_0 -E17_1" intLanes=":J13_1_0 :J13_5_0"/>
    <junction id=":J15_6_0" type="internal" x="-5.44" y="-100.89" incLanes=":J15_5_0 -E21_1" intLanes=":J15_1_0 :J15_3_0"/>
    <junction id=":J9_6_0" type="internal" x="5.44" y="100.89" incLanes=":J9_1_0 E11_1" intLanes=":J9_3_0 :J9_5_0"/>

    <connection from="-E11" to="E13" fromLane="0" toLane="0" via=":J8_0_0" dir="l" state="M"/>
    <connection from="-E11" to="E13" fromLane="1" toLane="1" via=":J8_0_1" dir="l" state="M"/>
    <connection from="-E12" to="-E11" fromLane="0" toLane="0" via=":J9_0_0" tl="J9" linkIndex="0" dir="s" state="O"/>
    <connection from="-E12" to="-E15" fromLane="1" toLane="1" via=":J9_1_0" tl="J9" linkIndex="1" dir="l" state="o"/>
    <connection from="-E13" to="E11" fromLane="0" toLane="0" via=":J8_2_0" dir="r" state="M"/>
    <connection from="-E13" to="E11" fromLane="1" toLane="1" via=":J8_2_1" dir="r" state="M"/>
    <connection from="-E14" to="-E13" fromLane="0" toLane="0" via=":J11_2_0" tl="J11" linkIndex="2" dir="r" state="O"/>
    <connection from="-E14" to="E18" fromLane="1" toLane="1" via=":J11_3_0" tl="J11" linkIndex="3" dir="l" state="o"/>
    <connection from="-E15" to="-E14" fromLane="0" toLane="0" via=":J12_0_0" tl="J12" linkIndex="0" dir="r" state="O"/>
    <connection from="-E15" to="-E20" fromLane="0" toLane="0" via=":J12_1_0" tl="J12" linkIndex="1" dir="s" state="O"/>
    <connection from="-E15" to="E16" fromLane="1" toLane="1" via=":J12_2_0" tl="J12" linkIndex="2" dir="l" state="o"/>
    <connection from="-E16" to="E15" fromLane="0" toLane="0" via=":J12_3_0" tl="J12" linkIndex="3" dir="r" state="o"/>
    <connection from="-E16" to="-E14" fromLane="0" toLane="0" via=":J12_4_0" tl="J12" linkIndex="4" dir="s" state="o"/>
    <connection from="-E16" to="-E20" fromLane="1" toLane="1" via=":J12_5_0" tl="J12" linkIndex="5" dir="l" state="o"/>
    <connection from="-E17" to="-E16" fromLane="0" toLane="0" via=":J13_0_0" tl="J13" linkIndex="0" dir="r" state="O"/>
    <connection from="-E17" to="-E22" fromLane="1" toLane="1" via=":J13_1_0" tl="J13" linkIndex="1" dir="s" state="O"/>
    <connection from="-E18" to="E14" fromLane="0" toLane="0" via=":J11_4_0" tl="J11" linkIndex="4" dir="r" state="O"/>