<?xml version="1.0" encoding="UTF-8"?>

<!-- generated on 2025-05-13 16:33:37 by Eclipse SUMO netedit Version 1.23.1
<neteditConfiguration xmlns:xsi="http://www.w3.org/2001/XMLSchema-instance" xsi:noNamespaceSchemaLocation="http://sumo.dlr.de/xsd/neteditConfiguration.xsd">

    <input>
        <sumo-net-file value="/home/nicklas/Documents/DAS_semester2/bio/swarm_project/sumo/world_odense.net.xml"/>
    </input>

    <output>
        <output-file value="/home/nicklas/Documents/DAS_semester2/bio/swarm_project/sumo/world_odense.net.xml"/>
        <output.street-names value="true"/>
    </output>

    <processing>
        <geometry.min-radius.fix.railways value="false"/>
        <geometry.avoid-overlap value="false"/>
        <geometry.max-grade.fix value="false"/>
        <offset.disable-normalization value="true"/>
        <lefthand value="0"/>
    </processing>

    <junctions>
        <no-turnarounds value="true"/>
        <junctions.corner-detail value="5"/>
        <junctions.limit-turn-speed value="5.50"/>
        <rectangular-lane-cut value="0"/>
    </junctions>

    <pedestrian>
        <walkingareas value="0"/>
    </pedestrian>

</neteditConfiguration>
-->

<net version="1.20" junctionCornerDetail="5" limitTurnSpeed="5.50" avoidOverlap="0" xmlns:xsi="http://www.w3.org/2001/XMLSchema-instance" xsi:noNamespaceSchemaLocation="http://sumo.dlr.de/xsd/net_file.xsd">

    <location netOffset="-586386.00,-6139406.90" convBoundary="3.37,7.76,983.56,726.61" origBoundary="10.363954,55.393232,10.379925,55.399733" projParameter="+proj=utm +zone=32 +ellps=WGS84 +datum=WGS84 +units=m +no_defs"/>

    <type id="highway.residential" priority="3" numLanes="1" speed="13.89" disallow="tram rail_urban rail rail_electric rail_fast ship container cable_car subway aircraft wheelchair scooter drone" oneway="0"/>
    <type id="highway.secondary" priority="11" numLanes="1" speed="27.78" disallow="tram rail_urban rail rail_electric rail_fast ship container cable_car subway aircraft wheelchair scooter drone" oneway="0"/>
    <type id="highway.tertiary" priority="10" numLanes="1" speed="22.22" disallow="tram rail_urban rail rail_electric rail_fast ship container cable_car subway aircraft wheelchair scooter drone" oneway="0"/>
    <type id="highway.unclassified" priority="4" numLanes="1" speed="13.89" disallow="tram rail_urban rail rail_electric rail_fast ship container cable_car subway aircraft wheelchair scooter drone" oneway="0"/>

    <edge id=":1072751113_0" function="internal">
        <lane id=":1072751113_0_0" index="0" disallow="tram rail_urban rail rail_electric rail_fast ship container cable_car subway aircraft wheelchair scooter drone" speed="13.89" length="8.25" shape="779.05,677.07 776.60,677.58 775.06,678.67 773.53,679.71 771.09,680.09"/>
        <lane id=":1072751113_0_1" index="1" disallow="tram rail_urban rail rail_electric rail_fast ship container cable_car subway aircraft wheelchair scooter drone" speed="13.89" length="8.25" shape="779.05,677.07 771.26,676.89"/>
    </edge>
    <edge id=":1072751113_2" function="internal">
        <lane id=":1072751113_2_0" index="0" disallow="tram rail_urban rail rail_electric rail_fast ship container cable_car subway aircraft wheelchair scooter drone" speed="13.89" length="7.60" shape="771.43,673.54 773.68,673.75 775.22,673.85 776.76,673.88 779.02,673.87"/>
    </edge>
    <edge id=":116743831_0" function="internal">
        <lane id=":116743831_0_0" index="0" disallow="tram rail_urban rail rail_electric rail_fast ship container cable_car subway aircraft wheelchair scooter drone" speed="13.89" length="5.54" shape="71.79,54.06 71.42,52.39 71.21,51.24 71.07,50.07 70.93,48.36"/>
        <lane id=":116743831_0_1" index="1" disallow="tram rail_urban rail rail_electric rail_fast ship container cable_car subway aircraft wheelchair scooter drone" speed="13.89" length="5.54" shape="74.91,53.35 74.57,51.81 74.37,50.75 74.25,49.68 74.12,48.11"/>
    </edge>
    <edge id=":116743831_2" function="internal">
        <lane id=":116743831_2_0" index="0" disallow="tram rail_urban rail rail_electric rail_fast ship container cable_car subway aircraft wheelchair scooter drone" speed="13.89" length="4.36" shape="83.83,47.34 83.91,48.49 83.96,49.28 84.06,50.07 84.29,51.19"/>
        <lane id=":116743831_2_1" index="1" disallow="tram rail_urban rail rail_electric rail_fast ship container cable_car subway aircraft wheelchair scooter drone" speed="13.89" length="4.36" shape="80.64,47.59 80.73,48.88 80.79,49.77 80.91,50.65 81.17,51.91"/>
        <lane id=":116743831_2_2" index="2" disallow="tram rail_urban rail rail_electric rail_fast ship container cable_car subway aircraft wheelchair scooter drone" speed="13.89" length="4.36" shape="77.45,47.84 77.55,49.27 77.62,50.25 77.76,51.23 78.05,52.63"/>
    </edge>
    <edge id=":11729670960_0" function="internal">
        <lane id=":11729670960_0_0" index="0" disallow="tram rail_urban rail rail_electric rail_fast ship container cable_car subway aircraft wheelchair scooter drone" speed="13.89" length="0.32" shape="471.08,110.47 471.08,110.56 471.10,110.63 471.12,110.69 471.12,110.79"/>
    </edge>
    <edge id=":11729670960_1" function="internal">
        <lane id=":11729670960_1_0" index="0" disallow="tram rail_urban rail rail_electric rail_fast ship container cable_car subway aircraft wheelchair scooter drone" speed="13.89" length="0.30" shape="467.93,110.51 467.95,110.43 467.98,110.37 468.01,110.32 468.03,110.23"/>
    </edge>
    <edge id=":122148013_0" function="internal">
        <lane id=":122148013_0_0" index="0" speed="13.89" length="14.39" shape="770.99,335.38 762.97,347.32"/>
    </edge>
    <edge id=":122148013_1" function="internal">
        <lane id=":122148013_1_0" index="0" speed="7.98" length="4.07" shape="770.99,335.38 768.37,338.28 768.23,338.34"/>
    </edge>
    <edge id=":122148013_6" function="internal">
        <lane id=":122148013_6_0" index="0" speed="7.98" length="10.17" shape="768.23,338.34 765.46,339.63 762.25,339.44 758.75,337.69"/>
    </edge>
    <edge id=":122148013_2" function="internal">
        <lane id=":122148013_2_0" index="0" speed="6.48" length="9.03" shape="760.57,335.06 762.79,336.17 764.83,336.29 766.67,335.43 768.33,333.59"/>
    </edge>
    <edge id=":122148013_3" function="internal">
        <lane id=":122148013_3_0" index="0" speed="8.05" length="14.21" shape="760.57,335.06 763.44,337.70 764.80,340.63 764.64,343.84 762.97,347.32"/>
    </edge>
    <edge id=":122148013_4" function="internal">
        <lane id=":122148013_4_0" index="0" speed="6.56" length="9.10" shape="760.31,345.55 761.38,343.32 761.47,341.26 760.60,339.39 758.75,337.69"/>
    </edge>
    <edge id=":122148013_5" function="internal">
        <lane id=":122148013_5_0" index="0" speed="13.89" length="14.40" shape="760.31,345.55 768.33,333.59"/>
    </edge>
    <edge id=":1789808279_0" function="internal">
        <lane id=":1789808279_0_0" index="0" disallow="tram rail_urban rail rail_electric rail_fast ship container cable_car subway aircraft wheelchair scooter drone" speed="6.78" length="9.38" shape="199.91,491.60 198.89,489.37 197.33,487.96 195.23,487.36 192.60,487.58"/>
    </edge>
    <edge id=":1789808279_1" function="internal">
        <lane id=":1789808279_1_0" index="0" disallow="tram rail_urban rail rail_electric rail_fast ship container cable_car subway aircraft wheelchair scooter drone" speed="13.89" length="14.42" shape="199.91,491.60 195.92,477.75"/>
    </edge>
    <edge id=":1789808279_2" function="internal">
        <lane id=":1789808279_2_0" index="0" disallow="tram rail_urban rail rail_electric rail_fast ship container cable_car subway aircraft wheelchair scooter drone" speed="3.65" length="1.44" shape="199.91,491.60 200.35,490.23"/>
    </edge>
    <edge id=":1789808279_8" function="internal">
        <lane id=":1789808279_8_0" index="0" disallow="tram rail_urban rail rail_electric rail_fast ship container cable_car subway aircraft wheelchair scooter drone" speed="3.65" length="3.23" shape="200.35,490.23 201.01,489.62 201.89,489.79 202.99,490.72"/>
    </edge>
    <edge id=":1789808279_3" function="internal">
        <lane id=":1789808279_3_0" index="0" disallow="tram rail_urban rail rail_electric rail_fast ship container cable_car subway aircraft wheelchair scooter drone" speed="13.89" length="14.43" shape="198.99,476.86 202.99,490.72"/>
    </edge>
    <edge id=":1789808279_4" function="internal">
        <lane id=":1789808279_4_0" index="0" disallow="tram rail_urban rail rail_electric rail_fast ship container cable_car subway aircraft wheelchair scooter drone" speed="7.88" length="4.13" shape="198.99,476.86 199.54,480.82 199.51,480.95"/>
    </edge>
    <edge id=":1789808279_5" function="internal">
        <lane id=":1789808279_5_0" index="0" disallow="tram rail_urban rail rail_electric rail_fast ship container cable_car subway aircraft wheelchair scooter drone" speed="3.65" length="1.44" shape="198.99,476.86 198.55,478.24"/>
    </edge>
    <edge id=":1789808279_9" function="internal">
        <lane id=":1789808279_9_0" index="0" disallow="tram rail_urban rail rail_electric rail_fast ship container cable_car subway aircraft wheelchair scooter drone" speed="7.88" length="10.33" shape="199.51,480.95 198.66,483.93 196.35,486.18 192.60,487.58"/>
    </edge>
    <edge id=":1789808279_10" function="internal">
        <lane id=":1789808279_10_0" index="0" disallow="tram rail_urban rail rail_electric rail_fast ship container cable_car subway aircraft wheelchair scooter drone" speed="3.65" length="3.23" shape="198.55,478.24 197.90,478.84 197.02,478.68 195.92,477.75"/>
    </edge>
    <edge id=":1789808279_6" function="internal">
        <lane id=":1789808279_6_0" index="0" disallow="tram rail_urban rail rail_electric rail_fast ship container cable_car subway aircraft wheelchair scooter drone" speed="6.36" length="9.04" shape="191.92,484.45 194.27,483.58 195.71,482.17 196.26,480.23 195.92,477.75"/>
    </edge>
    <edge id=":1789808279_7" function="internal">
        <lane id=":1789808279_7_0" index="0" disallow="tram rail_urban rail rail_electric rail_fast ship container cable_car subway aircraft wheelchair scooter drone" speed="3.65" length="4.67" shape="191.92,484.45 193.26,484.98 193.82,485.67 193.60,486.54 192.60,487.58"/>
    </edge>
    <edge id=":1789808282_0" function="internal">
        <lane id=":1789808282_0_0" index="0" disallow="tram rail_urban rail rail_electric rail_fast ship container cable_car subway aircraft wheelchair scooter drone" speed="3.65" length="4.67" shape="182.68,489.72 181.34,489.20 180.78,488.50 181.00,487.63 182.00,486.60"/>
    </edge>
    <edge id=":251478855_0" function="internal">
        <lane id=":251478855_0_0" index="0" disallow="tram rail_urban rail rail_electric rail_fast ship container cable_car subway aircraft wheelchair scooter drone" speed="13.89" length="14.42" shape="736.22,387.32 728.18,399.29"/>
    </edge>
    <edge id=":251478855_1" function="internal">
        <lane id=":251478855_1_0" index="0" speed="8.00" length="4.08" shape="736.22,387.32 733.62,390.22 733.45,390.30"/>
    </edge>
    <edge id=":251478855_7" function="internal">
        <lane id=":251478855_7_0" index="0" speed="8.00" length="10.12" shape="733.45,390.30 730.71,391.58 727.51,391.42 724.01,389.73"/>
    </edge>
    <edge id=":251478855_2" function="internal">
        <lane id=":251478855_2_0" index="0" speed="6.50" length="9.03" shape="725.79,387.08 728.02,388.15 730.06,388.25 731.90,387.38 733.56,385.54"/>
    </edge>
    <edge id=":251478855_3" function="internal">
        <lane id=":251478855_3_0" index="0" disallow="tram rail_urban rail rail_electric rail_fast ship container cable_car subway aircraft wheelchair scooter drone" speed="8.02" length="14.16" shape="725.79,387.08 728.65,389.66 730.00,392.56 729.85,395.77 728.18,399.29"/>
    </edge>
    <edge id=":251478855_4" function="internal">
        <lane id=":251478855_4_0" index="0" disallow="tram rail_urban rail rail_electric rail_fast ship container cable_car subway aircraft wheelchair scooter drone" speed="6.52" length="9.01" shape="725.53,397.50 726.59,395.26 726.69,393.22 725.83,391.38 724.01,389.73"/>
    </edge>
    <edge id=":251478855_5" function="internal">
        <lane id=":251478855_5_0" index="0" disallow="tram rail_urban rail rail_electric rail_fast ship container cable_car subway aircraft wheelchair scooter drone" speed="13.89" length="14.41" shape="725.53,397.50 733.56,385.54"/>
    </edge>
    <edge id=":251478855_6" function="internal">
        <lane id=":251478855_6_0" index="0" disallow="tram rail_urban rail rail_electric rail_fast ship container cable_car subway aircraft wheelchair scooter drone" speed="3.65" length="1.44" shape="725.53,397.50 726.86,396.96"/>
    </edge>
    <edge id=":251478855_8" function="internal">
        <lane id=":251478855_8_0" index="0" disallow="tram rail_urban rail rail_electric rail_fast ship container cable_car subway aircraft wheelchair scooter drone" speed="3.65" length="3.23" shape="726.86,396.96 727.75,397.07 728.19,397.85 728.18,399.29"/>
    </edge>
    <edge id=":251478965_0" function="internal">
        <lane id=":251478965_0_0" index="0" disallow="tram rail_urban rail rail_electric rail_fast ship container cable_car subway aircraft wheelchair scooter drone" speed="6.48" length="9.03" shape="441.50,197.62 439.28,196.53 437.25,196.42 435.40,197.28 433.75,199.13"/>
    </edge>
    <edge id=":251478965_1" function="internal">
        <lane id=":251478965_1_0" index="0" disallow="tram rail_urban rail rail_electric rail_fast ship container cable_car subway aircraft wheelchair scooter drone" speed="13.89" length="14.43" shape="441.50,197.62 429.60,189.47"/>
    </edge>
    <edge id=":251478965_2" function="internal">
        <lane id=":251478965_2_0" index="0" disallow="tram rail_urban rail rail_electric rail_fast ship container cable_car subway aircraft wheelchair scooter drone" speed="8.00" length="14.23" shape="441.50,197.62 438.62,194.99 437.28,192.07 437.48,188.86 439.22,185.37"/>
    </edge>
    <edge id=":251478965_3" function="internal">
        <lane id=":251478965_3_0" index="0" disallow="tram rail_urban rail rail_electric rail_fast ship container cable_car subway aircraft wheelchair scooter drone" speed="6.50" length="9.05" shape="441.85,187.19 440.75,189.41 440.62,191.45 441.47,193.30 443.31,194.98"/>
    </edge>
    <edge id=":251478965_4" function="internal">
        <lane id=":251478965_4_0" index="0" disallow="tram rail_urban rail rail_electric rail_fast ship container cable_car subway aircraft wheelchair scooter drone" speed="13.89" length="14.43" shape="441.85,187.19 433.75,199.13"/>
    </edge>
    <edge id=":251478965_5" function="internal">
        <lane id=":251478965_5_0" index="0" disallow="tram rail_urban rail rail_electric rail_fast ship container cable_car subway aircraft wheelchair scooter drone" speed="8.02" length="4.01" shape="441.85,187.19 439.21,190.05 439.10,190.10"/>
    </edge>
    <edge id=":251478965_6" function="internal">
        <lane id=":251478965_6_0" index="0" disallow="tram rail_urban rail rail_electric rail_fast ship container cable_car subway aircraft wheelchair scooter drone" speed="3.65" length="1.44" shape="441.85,187.19 440.51,187.73"/>
    </edge>
    <edge id=":251478965_15" function="internal">
        <lane id=":251478965_15_0" index="0" disallow="tram rail_urban rail rail_electric rail_fast ship container cable_car subway aircraft wheelchair scooter drone" speed="8.02" length="10.19" shape="439.10,190.10 436.28,191.39 433.08,191.19 429.60,189.47"/>
    </edge>
    <edge id=":251478965_16" function="internal">
        <lane id=":251478965_16_0" index="0" disallow="tram rail_urban rail rail_electric rail_fast ship container cable_car subway aircraft wheelchair scooter drone" speed="3.65" length="3.23" shape="440.51,187.73 439.63,187.60 439.20,186.82 439.22,185.37"/>
    </edge>
    <edge id=":251478965_7" function="internal">
        <lane id=":251478965_7_0" index="0" disallow="tram rail_urban rail rail_electric rail_fast ship container cable_car subway aircraft wheelchair scooter drone" speed="6.52" length="9.06" shape="431.41,186.84 433.63,187.93 435.67,188.05 437.53,187.20 439.22,185.37"/>
    </edge>
    <edge id=":251478965_8" function="internal">
        <lane id=":251478965_8_0" index="0" disallow="tram rail_urban rail rail_electric rail_fast ship container cable_car subway aircraft wheelchair scooter drone" speed="13.89" length="14.42" shape="431.41,186.84 443.31,194.98"/>
    </edge>
    <edge id=":251478965_9" function="internal">
        <lane id=":251478965_9_0" index="0" disallow="tram rail_urban rail rail_electric rail_fast ship container cable_car subway aircraft wheelchair scooter drone" speed="8.05" length="14.23" shape="431.41,186.84 434.27,189.46 435.61,192.39 435.44,195.61 433.75,199.13"/>
    </edge>
    <edge id=":251478965_10" function="internal">
        <lane id=":251478965_10_0" index="0" disallow="tram rail_urban rail rail_electric rail_fast ship container cable_car subway aircraft wheelchair scooter drone" speed="3.65" length="4.67" shape="431.41,186.84 431.94,188.17 431.82,189.06 431.04,189.49 429.60,189.47"/>
    </edge>
    <edge id=":251478965_11" function="internal">
        <lane id=":251478965_11_0" index="0" disallow="tram rail_urban rail rail_electric rail_fast ship container cable_car subway aircraft wheelchair scooter drone" speed="6.57" length="9.12" shape="431.09,197.36 432.17,195.10 432.28,193.03 431.43,191.16 429.60,189.47"/>
    </edge>
    <edge id=":251478965_12" function="internal">
        <lane id=":251478965_12_0" index="0" disallow="tram rail_urban rail rail_electric rail_fast ship container cable_car subway aircraft wheelchair scooter drone" speed="13.89" length="14.48" shape="431.09,197.36 439.22,185.37"/>
    </edge>
    <edge id=":251478965_13" function="internal">
        <lane id=":251478965_13_0" index="0" disallow="tram rail_urban rail rail_electric rail_fast ship container cable_car subway aircraft wheelchair scooter drone" speed="7.98" length="4.14" shape="431.09,197.36 433.69,194.44 433.90,194.34"/>
    </edge>
    <edge id=":251478965_14" function="internal">
        <lane id=":251478965_14_0" index="0" disallow="tram rail_urban rail rail_electric rail_fast ship container cable_car subway aircraft wheelchair scooter drone" speed="3.65" length="1.44" shape="431.09,197.36 432.42,196.80"/>
    </edge>
    <edge id=":251478965_17" function="internal">
        <lane id=":251478965_17_0" index="0" disallow="tram rail_urban rail rail_electric rail_fast ship container cable_car subway aircraft wheelchair scooter drone" speed="7.98" length="10.10" shape="433.90,194.34 436.60,193.08 439.80,193.26 443.31,194.98"/>
    </edge>
    <edge id=":251478965_18" function="internal">
        <lane id=":251478965_18_0" index="0" disallow="tram rail_urban rail rail_electric rail_fast ship container cable_car subway aircraft wheelchair scooter drone" speed="3.65" length="3.23" shape="432.42,196.80 433.30,196.91 433.75,197.69 433.75,199.13"/>
    </edge>
    <edge id=":251479004_0" function="internal">
        <lane id=":251479004_0_0" index="0" speed="6.61" length="9.18" shape="509.36,244.02 507.14,242.93 505.08,242.81 503.16,243.67 501.40,245.50"/>
    </edge>
    <edge id=":251479004_1" function="internal">
        <lane id=":251479004_1_0" index="0" speed="13.89" length="14.42" shape="509.36,244.02 497.47,235.86"/>
    </edge>
    <edge id=":251479004_2" function="internal">
        <lane id=":251479004_2_0" index="0" speed="8.13" length="4.00" shape="509.36,244.02 506.54,241.40 506.47,241.26"/>
    </edge>
    <edge id=":251479004_12" function="internal">
        <lane id=":251479004_12_0" index="0" speed="8.13" length="10.26" shape="506.47,241.26 505.20,238.46 505.35,235.21 506.98,231.63"/>
    </edge>
    <edge id=":251479004_3" function="internal">
        <lane id=":251479004_3_0" index="0" speed="6.67" length="9.25" shape="509.67,233.34 508.61,235.67 508.50,237.79 509.36,239.70 511.18,241.39"/>
    </edge>
    <edge id=":251479004_4" function="internal">
        <lane id=":251479004_4_0" index="0" speed="13.89" length="14.71" shape="509.67,233.34 501.40,245.50"/>
    </edge>
    <edge id=":251479004_5" function="internal">
        <lane id=":251479004_5_0" index="0" speed="7.94" length="14.32" shape="509.67,233.34 507.11,236.34 504.22,237.76 501.01,237.60 497.47,235.86"/>
    </edge>
    <edge id=":251479004_6" function="internal">
        <lane id=":251479004_6_0" index="0" speed="6.44" length="9.03" shape="499.28,233.22 501.51,234.31 503.54,234.42 505.36,233.52 506.98,231.63"/>
    </edge>
    <edge id=":251479004_7" function="internal">
        <lane id=":251479004_7_0" index="0" speed="13.89" length="14.44" shape="499.28,233.22 511.18,241.39"/>
    </edge>
    <edge id=":251479004_8" function="internal">
        <lane id=":251479004_8_0" index="0" speed="7.95" length="4.12" shape="499.28,233.22 502.18,235.88 502.26,236.04"/>
    </edge>
    <edge id=":251479004_13" function="internal">
        <lane id=":251479004_13_0" index="0" speed="7.95" length="10.20" shape="502.26,236.04 503.51,238.81 503.24,242.02 501.40,245.50"/>
    </edge>
    <edge id=":251479004_9" function="internal">
        <lane id=":251479004_9_0" index="0" speed="6.44" length="9.04" shape="498.81,243.61 499.98,241.42 500.14,239.39 499.31,237.54 497.47,235.86"/>
    </edge>
    <edge id=":251479004_10" function="internal">
        <lane id=":251479004_10_0" index="0" speed="13.89" length="14.50" shape="498.81,243.61 506.98,231.63"/>
    </edge>
    <edge id=":251479004_11" function="internal">
        <lane id=":251479004_11_0" index="0" speed="8.09" length="14.24" shape="498.81,243.61 501.54,240.79 504.52,239.48 507.73,239.68 511.18,241.39"/>
    </edge>
    <edge id=":251479005_0" function="internal">
        <lane id=":251479005_0_0" index="0" disallow="tram rail_urban rail rail_electric rail_fast ship container cable_car subway aircraft wheelchair scooter drone" speed="6.51" length="9.12" shape="565.74,131.39 564.95,128.99 563.60,127.42 561.69,126.70 559.21,126.81"/>
    </edge>
    <edge id=":251479005_1" function="internal">
        <lane id=":251479005_1_0" index="0" disallow="tram rail_urban rail rail_electric rail_fast ship container cable_car subway aircraft wheelchair scooter drone" speed="8.09" length="13.84" shape="565.74,131.39 565.60,127.63 566.68,124.66 568.96,122.48 572.46,121.08"/>
    </edge>
    <edge id=":251479005_2" function="internal">
        <lane id=":251479005_2_0" index="0" disallow="tram rail_urban rail rail_electric rail_fast ship container cable_car subway aircraft wheelchair scooter drone" speed="6.69" length="9.02" shape="573.22,124.19 570.95,125.09 569.45,126.51 568.73,128.45 568.78,130.90"/>
    </edge>
    <edge id=":251479005_3" function="internal">
        <lane id=":251479005_3_0" index="0" disallow="tram rail_urban rail rail_electric rail_fast ship container cable_car subway aircraft wheelchair scooter drone" speed="13.89" length="14.25" shape="573.22,124.19 559.21,126.81"/>
    </edge>
    <edge id=":251479005_4" function="internal">
        <lane id=":251479005_4_0" index="0" disallow="tram rail_urban rail rail_electric rail_fast ship container cable_car subway aircraft wheelchair scooter drone" speed="3.65" length="1.44" shape="573.22,124.19 571.86,123.69"/>
    </edge>
    <edge id=":251479005_8" function="internal">
        <lane id=":251479005_8_0" index="0" disallow="tram rail_urban rail rail_electric rail_fast ship container cable_car subway aircraft wheelchair scooter drone" speed="3.65" length="3.23" shape="571.86,123.69 571.29,123.01 571.48,122.14 572.46,121.08"/>
    </edge>
    <edge id=":251479005_5" function="internal">
        <lane id=":251479005_5_0" index="0" disallow="tram rail_urban rail rail_electric rail_fast ship container cable_car subway aircraft wheelchair scooter drone" speed="13.89" length="14.09" shape="558.68,124.01 572.46,121.08"/>
    </edge>
    <edge id=":251479005_6" function="internal">
        <lane id=":251479005_6_0" index="0" disallow="tram rail_urban rail rail_electric rail_fast ship container cable_car subway aircraft wheelchair scooter drone" speed="7.89" length="2.54" shape="558.68,124.01 561.22,123.90"/>
    </edge>
    <edge id=":251479005_7" function="internal">
        <lane id=":251479005_7_0" index="0" disallow="tram rail_urban rail rail_electric rail_fast ship container cable_car subway aircraft wheelchair scooter drone" speed="3.51" length="0.90" shape="558.68,124.01 559.51,124.36"/>
    </edge>
    <edge id=":251479005_9" function="internal">
        <lane id=":251479005_9_0" index="0" disallow="tram rail_urban rail rail_electric rail_fast ship container cable_car subway aircraft wheelchair scooter drone" speed="7.89" length="11.47" shape="561.22,123.90 562.58,123.83 565.56,124.92 567.63,127.28 568.78,130.90"/>
    </edge>
    <edge id=":251479005_10" function="internal">
        <lane id=":251479005_10_0" index="0" disallow="tram rail_urban rail rail_electric rail_fast ship container cable_car subway aircraft wheelchair scooter drone" speed="3.51" length="3.26" shape="559.51,124.36 559.86,124.51 560.34,125.14 560.13,125.91 559.21,126.81"/>
    </edge>
    <edge id=":251479013_0" function="internal">
        <lane id=":251479013_0_0" index="0" speed="6.51" length="8.86" shape="634.93,252.16 632.77,251.08 630.76,250.94 628.91,251.73 627.23,253.47"/>
    </edge>
    <edge id=":251479013_1" function="internal">
        <lane id=":251479013_1_0" index="0" speed="13.89" length="13.39" shape="634.93,252.16 632.12,250.06 629.79,247.86 627.83,245.35 626.12,242.31"/>
    </edge>
    <edge id=":251479013_2" function="internal">
        <lane id=":251479013_2_0" index="0" speed="13.89" length="11.76" shape="629.01,240.93 630.55,243.78 632.14,245.86 634.11,247.62 636.75,249.53"/>
    </edge>
    <edge id=":251479013_3" function="internal">
        <lane id=":251479013_3_0" index="0" speed="9.71" length="3.22" shape="629.01,240.93 629.99,244.00"/>
    </edge>
    <edge id=":251479013_6" function="internal">
        <lane id=":251479013_6_0" index="0" speed="9.71" length="10.10" shape="629.99,244.00 630.02,247.12 629.10,250.27 627.23,253.47"/>
    </edge>
    <edge id=":251479013_4" function="internal">
        <lane id=":251479013_4_0" index="0" speed="8.43" length="9.88" shape="624.64,251.58 626.07,249.17 626.80,246.82 626.81,244.53 626.12,242.31"/>
    </edge>
    <edge id=":251479013_5" function="internal">
        <lane id=":251479013_5_0" index="0" speed="8.01" length="13.92" shape="624.64,251.58 627.29,248.86 630.20,247.61 633.35,247.83 636.75,249.53"/>
    </edge>
    <edge id=":251479014_0" function="internal">
        <lane id=":251479014_0_0" index="0" speed="6.61" length="9.22" shape="597.08,304.54 594.79,303.43 592.70,303.29 590.80,304.14 589.09,305.96"/>
    </edge>
    <edge id=":251479014_1" function="internal">
        <lane id=":251479014_1_0" index="0" speed="13.89" length="14.56" shape="597.08,304.54 585.05,296.35"/>
    </edge>
    <edge id=":251479014_2" function="internal">
        <lane id=":251479014_2_0" index="0" speed="7.93" length="4.15" shape="597.08,304.54 594.15,301.90 594.07,301.72"/>
    </edge>
    <edge id=":251479014_12" function="internal">
        <lane id=":251479014_12_0" index="0" speed="7.93" length="10.20" shape="594.07,301.72 592.81,298.97 593.07,295.76 594.92,292.27"/>
    </edge>
    <edge id=":251479014_3" function="internal">
        <lane id=":251479014_3_0" index="0" speed="6.42" length="9.04" shape="597.51,294.15 596.34,296.35 596.18,298.37 597.02,300.22 598.87,301.89"/>
    </edge>
    <edge id=":251479014_4" function="internal">
        <lane id=":251479014_4_0" index="0" speed="13.89" length="14.50" shape="597.51,294.15 589.09,305.96"/>
    </edge>
    <edge id=":251479014_5" function="internal">
        <lane id=":251479014_5_0" index="0" speed="8.12" length="14.34" shape="597.51,294.15 594.76,296.98 591.77,298.29 588.53,298.08 585.05,296.35"/>
    </edge>
    <edge id=":251479014_6" function="internal">
        <lane id=":251479014_6_0" index="0" speed="6.65" length="9.27" shape="586.87,293.72 589.12,294.83 591.21,294.96 593.14,294.11 594.92,292.27"/>
    </edge>
    <edge id=":251479014_7" function="internal">
        <lane id=":251479014_7_0" index="0" speed="13.89" length="14.51" shape="586.87,293.72 598.87,301.89"/>
    </edge>
    <edge id=":251479014_8" function="internal">
        <lane id=":251479014_8_0" index="0" speed="8.00" length="4.02" shape="586.87,293.72 589.73,296.36 589.78,296.47"/>
    </edge>
    <edge id=":251479014_13" function="internal">
        <lane id=":251479014_13_0" index="0" speed="8.00" length="10.18" shape="589.78,296.47 591.05,299.28 590.84,302.48 589.09,305.96"/>
    </edge>
    <edge id=":251479014_9" function="internal">
        <lane id=":251479014_9_0" index="0" speed="6.50" length="9.03" shape="586.46,304.14 587.57,301.92 587.71,299.89 586.87,298.03 585.05,296.35"/>
    </edge>
    <edge id=":251479014_10" function="internal">
        <lane id=":251479014_10_0" index="0" speed="13.89" length="14.57" shape="586.46,304.14 594.92,292.27"/>
    </edge>
    <edge id=":251479014_11" function="internal">
        <lane id=":251479014_11_0" index="0" speed="8.08" length="14.32" shape="586.46,304.14 589.12,301.29 592.07,299.97 595.32,300.17 598.87,301.89"/>
    </edge>
    <edge id=":251479017_0" function="internal">
        <lane id=":251479017_0_0" index="0" speed="6.08" length="7.76" shape="557.94,350.82 556.49,352.37 554.89,353.09 553.14,352.97 551.24,352.01"/>
    </edge>
    <edge id=":251479017_1" function="internal">
        <lane id=":251479017_1_0" index="0" speed="3.90" length="2.59" shape="553.08,349.39 553.71,349.71 554.29,349.75 554.82,349.51 555.31,348.99"/>
    </edge>
    <edge id=":251479018_0" function="internal">