<?xml version="1.0" encoding="UTF-8"?>

<!-- generated on 2025-04-02 15:11:44 by Eclipse SUMO netedit Version 1.18.0
<configuration xmlns:xsi="http://www.w3.org/2001/XMLSchema-instance" xsi:noNamespaceSchemaLocation="http://sumo.dlr.de/xsd/neteditConfiguration.xsd">

    <input>
        <sumo-net-file value="sumo/world_cross_1_tls_4_phases.net.xml"/>
    </input>

    <output>
        <output-file value="sumo/world_cross_1_tls_4_phases.net.xml"/>
    </output>

    <processing>
        <geometry.min-radius.fix.railways value="false"/>
        <geometry.max-grade.fix value="false"/>
        <offset.disable-normalization value="true"/>
        <lefthand value="0"/>
    </processing>

    <junctions>
        <no-turnarounds value="true"/>
        <junctions.corner-detail value="5"/>
        <junctions.limit-turn-speed value="5.50"/>
        <rectangular-lane-cut value="0"/>
    </junctions>

    <pedestrian>
        <walkingareas value="0"/>
    </pedestrian>

</configuration>
-->

<net version="1.16" junctionCornerDetail="5" limitTurnSpeed="5.50" xmlns:xsi="http://www.w3.org/2001/XMLSchema-instance" xsi:noNamespaceSchemaLocation="http://sumo.dlr.de/xsd/net_file.xsd">

    <location netOffset="0.00,0.00" convBoundary="0.00,0.00,300.00,300.00" origBoundary="0.00,0.00,300.00,300.00" projParameter="!"/>

    <edge id=":A1_0" function="internal">
        <lane id=":A1_0_0" index="0" speed="3.65" length="4.67" shape="0.00,151.60 -1.20,150.80 -1.60,150.00 -1.20,149.20 0.00,148.40"/>
    </edge>
    <edge id=":B0_0" function="internal">
        <lane id=":B0_0_0" index="0" speed="3.65" length="4.67" shape="148.40,0.00 149.20,-1.20 150.00,-1.60 150.80,-1.20 151.60,0.00"/>
    </edge>
    <edge id=":B1_0" function="internal">
        <lane id=":B1_0_0" index="0" speed="6.51" length="9.03" shape="148.40,157.20 148.05,154.75 147.00,153.00 145.25,151.95 142.80,151.60"/>
    </edge>
    <edge id=":B1_1" function="internal">
        <lane id=":B1_1_0" index="0" speed="13.89" length="14.40" shape="148.40,157.20 148.40,142.80"/>
    </edge>
    <edge id=":B1_2" function="internal">
        <lane id=":B1_2_0" index="0" speed="8.00" length="4.07" shape="148.40,157.20 148.95,153.35 149.04,153.20"/>
    </edge>
    <edge id=":B1_3" function="internal">
        <lane id=":B1_3_0" index="0" speed="3.65" length="1.44" shape="148.40,157.20 149.20,156.00"/>
    </edge>
    <edge id=":B1_16" function="internal">
        <lane id=":B1_16_0" index="0" speed="8.00" length="10.13" shape="149.04,153.20 150.60,150.60 153.35,148.95 157.20,148.40"/>
    </edge>
    <edge id=":B1_17" function="internal">
        <lane id=":B1_17_0" index="0" speed="3.65" length="3.23" shape="149.20,156.00 150.00,155.60 150.80,156.00 151.60,157.20"/>
    </edge>
    <edge id=":B1_4" function="internal">
        <lane id=":B1_4_0" index="0" speed="6.51" length="9.03" shape="157.20,151.60 154.75,151.95 153.00,153.00 151.95,154.75 151.60,157.20"/>
    </edge>
    <edge id=":B1_5" function="internal">
        <lane id=":B1_5_0" index="0" speed="13.89" length="14.40" shape="157.20,151.60 142.80,151.60"/>
    </edge>
    <edge id=":B1_6" function="internal">
        <lane id=":B1_6_0" index="0" speed="8.00" length="4.07" shape="157.20,151.60 153.35,151.05 153.20,150.96"/>
    </edge>
    <edge id=":B1_7" function="internal">
        <lane id=":B1_7_0" index="0" speed="3.65" length="1.44" shape="157.20,151.60 156.00,150.80"/>
    </edge>
    <edge id=":B1_18" function="internal">
        <lane id=":B1_18_0" index="0" speed="8.00" length="10.13" shape="153.20,150.96 150.60,149.40 148.95,146.65 148.40,142.80"/>
    </edge>
    <edge id=":B1_19" function="internal">
        <lane id=":B1_19_0" index="0" speed="3.65" length="3.23" shape="156.00,150.80 155.60,150.00 156.00,149.20 157.20,148.40"/>
    </edge>
    <edge id=":B1_8" function="internal">
        <lane id=":B1_8_0" index="0" speed="6.51" length="9.03" shape="151.60,142.80 151.95,145.25 153.00,147.00 154.75,148.05 157.20,148.40"/>
    </edge>
    <edge id=":B1_9" function="internal">
        <lane id=":B1_9_0" index="0" speed="13.89" length="14.40" shape="151.60,142.80 151.60,157.20"/>
    </edge>
    <edge id=":B1_10" function="internal">
        <lane id=":B1_10_0" index="0" speed="8.00" length="4.07" shape="151.60,142.80 151.05,146.65 150.96,146.80"/>
    </edge>
    <edge id=":B1_11" function="internal">
        <lane id=":B1_11_0" index="0" speed="3.65" length="1.44" shape="151.60,142.80 150.80,144.00"/>
    </edge>
    <edge id=":B1_20" function="internal">
        <lane id=":B1_20_0" index="0" speed="8.00" length="10.13" shape="150.96,146.80 149.40,149.40 146.65,151.05 142.80,151.60"/>
    </edge>
    <edge id=":B1_21" function="internal">
        <lane id=":B1_21_0" index="0" speed="3.65" length="3.23" shape="150.80,144.00 150.00,144.40 149.20,144.00 148.40,142.80"/>
    </edge>
    <edge id=":B1_12" function="internal">
        <lane id=":B1_12_0" index="0" speed="6.51" length="9.03" shape="142.80,148.40 145.25,148.05 147.00,147.00 148.05,145.25 148.40,142.80"/>
    </edge>
    <edge id=":B1_13" function="internal">
        <lane id=":B1_13_0" index="0" speed="13.89" length="14.40" shape="142.80,148.40 157.20,148.40"/>
    </edge>
    <edge id=":B1_14" function="internal">
        <lane id=":B1_14_0" index="0" speed="8.00" length="4.07" shape="142.80,148.40 146.65,148.95 146.80,149.04"/>
    </edge>
    <edge id=":B1_15" function="internal">
        <lane id=":B1_15_0" index="0" speed="3.65" length="1.44" shape="142.80,148.40 144.00,149.20"/>
    </edge>
    <edge id=":B1_22" function="internal">
        <lane id=":B1_22_0" index="0" speed="8.00" length="10.13" shape="146.80,149.04 149.40,150.60 151.05,153.35 151.60,157.20"/>
    </edge>
    <edge id=":B1_23" function="internal">
        <lane id=":B1_23_0" index="0" speed="3.65" length="3.23" shape="144.00,149.20 144.40,150.00 144.00,150.80 142.80,151.60"/>
    </edge>
    <edge id=":B2_0" function="internal">
        <lane id=":B2_0_0" index="0" speed="3.65" length="4.67" shape="151.60,300.00 150.80,301.20 150.00,301.60 149.20,301.20 148.40,300.00"/>
    </edge>
    <edge id=":C1_0" function="internal">
        <lane id=":C1_0_0" index="0" speed="3.65" length="4.67" shape="300.00,148.40 301.20,149.20 301.60,150.00 301.20,150.80 300.00,151.60"/>
    </edge>

    <edge id="A1B1" from="A1" to="B1" priority="-1" length="150.00">
        <lane id="A1B1_0" index="0" speed="13.89" length="150.00" shape="0.00,148.40 142.80,148.40"/>
    </edge>
    <edge id="B0B1" from="B0" to="B1" priority="-1" length="150.00">
        <lane id="B0B1_0" index="0" speed="13.89" length="150.00" shape="151.60,0.00 151.60,142.80"/>
    </edge>
    <edge id="B1A1" from="B1" to="A1" priority="-1" length="150.00">
        <lane id="B1A1_0" index="0" speed="13.89" length="150.00" shape="142.80,151.60 0.00,151.60"/>
    </edge>
    <edge id="B1B0" from="B1" to="B0" priority="-1" length="150.00">
        <lane id="B1B0_0" index="0" speed="13.89" length="150.00" shape="148.40,142.80 148.40,0.00"/>
    </edge>
    <edge id="B1B2" from="B1" to="B2" priority="-1" length="150.00">
        <lane id="B1B2_0" index="0" speed="13.89" length="150.00" shape="151.60,157.20 151.60,300.00"/>
    </edge>
    <edge id="B1C1" from="B1" to="C1" priority="-1" length="150.00">
        <lane id="B1C1_0" index="0" speed="13.89" length="150.00" shape="157.20,148.40 300.00,148.40"/>
    </edge>
    <edge id="B2B1" from="B2" to="B1" priority="-1" length="150.00">
        <lane id="B2B1_0" index="0" speed="13.89" length="150.00" shape="148.40,300.00 148.40,157.20"/>
    </edge>
    <edge id="C1B1" from="C1" to="B1" priority="-1" length="150.00">
        <lane id="C1B1_0" index="0" speed="13.89" length="150.00" shape="300.00,151.60 157.20,151.60"/>
    </edge>

    <tlLogic id="B1" type="static" programID="0" offset="0">
        <phase duration="1"  state="GGggrrrrGGggrrrr"/>
        <phase duration="1"  state="yyyyrrrryyyyrrrr"/>
        <phase duration="1"  state="GrrrrrGrGrrrrrGr"/>
        <phase duration="1"  state="yrrrrryryrrrrryr"/>
        <phase duration="1"  state="rrrrGGggrrrrGGgg"/>
        <phase duration="1"  state="rrrryyyyrrrryyyy"/>
        <phase duration="1"  state="rrGrGrrrrrGrGrrr"/>
        <phase duration="1"  state="rryryrrrrryryrrr"/>
    </tlLogic>

    <junction id="A1" type="priority" x="0.00" y="150.00" incLanes="B1A1_0" intLanes=":A1_0_0" shape="0.00,150.00 0.00,153.20 0.00,150.00">
        <request index="0" response="0" foes="0" cont="0"/>
    </junction>
    <junction id="B0" type="priority" x="150.00" y="0.00" incLanes="B1B0_0" intLanes=":B0_0_0" shape="150.00,0.00 146.80,0.00 150.00,0.00">
        <request index="0" response="0" foes="0" cont="0"/>
    </junction>
    <junction id="B1" type="traffic_light" x="150.00" y="150.00" incLanes="B2B1_0 C1B1_0 B0B1_0 A1B1_0" intLanes=":B1_0_0 :B1_1_0 :B1_16_0 :B1_17_0 :B1_4_0 :B1_5_0 :B1_18_0 :B1_19_0 :B1_8_0 :B1_9_0 :B1_20_0 :B1_21_0 :B1_12_0 :B1_13_0 :B1_22_0 :B1_23_0" shape="146.80,157.20 153.20,157.20 153.64,154.98 154.20,154.20 154.98,153.64 155.98,153.31 157.20,153.20 157.20,146.80 154.98,146.36 154.20,145.80 153.64,145.02 153.31,144.02 153.20,142.80 146.80,142.80 146.36,145.02 145.80,145.80 145.02,146.36 144.02,146.69 142.80,146.80 142.80,153.20 145.02,153.64 145.80,154.20 146.36,154.98 146.69,155.98">
        <request index="0"  response="0000000000000000" foes="1000010000100000" cont="0"/>
        <request index="1"  response="0100000001000000" foes="0111110001100000" cont="0"/>
        <request index="2"  response="0100001101000000" foes="0110011111100000" cont="1"/>
        <request index="3"  response="0100001000010000" foes="0100001000010000" cont="1"/>
        <request index="4"  response="0000001000000000" foes="0100001000001000" cont="0"/>
        <request index="5"  response="0000011000000111" foes="1100011000000111" cont="0"/>
        <request index="6"  response="0011011000000110" foes="0111111000000110" cont="1"/>
        <request index="7"  response="0010000100000100" foes="0010000100000100" cont="1"/>
        <request index="8"  response="0000000000000000" foes="0010000010000100" cont="0"/>
        <request index="9"  response="0100000001000000" foes="0110000001111100" cont="0"/>
        <request index="10" response="0100000001000111" foes="1110000001100111" cont="1"/>
        <request index="11" response="0001000001000010" foes="0001000001000010" cont="1"/>
        <request index="12" response="0000000000000010" foes="0000100001000010" cont="0"/>
        <request index="13" response="0000011100000110" foes="0000011111000110" cont="0"/>
        <request index="14" response="0000011001110110" foes="0000011001111110" cont="1"/>
        <request index="15" response="0000010000100001" foes="0000010000100001" cont="1"/>
    </junction>
    <junction id="B2" type="priority" x="150.00" y="300.00" incLanes="B1B2_0" intLanes=":B2_0_0" shape="150.00,300.00 153.20,300.00 150.00,300.00">
        <request index="0" response="0" foes="0" cont="0"/>
    </junction>
    <junction id="C1" type="priority" x="300.00" y="150.00" incLanes="B1C1_0" intLanes=":C1_0_0" shape="300.00,150.00 300.00,146.80 300.00,150.00">
        <request index="0" response="0" foes="0" cont="0"/>
    </junction>

    <junction id=":B1_16_0" type="internal" x="149.04" y="153.20" incLanes=":B1_2_0 B0B1_0" intLanes=":B1_5_0 :B1_6_0 :B1_7_0 :B1_8_0 :B1_9_0 :B1_13_0 :B1_14_0"/>
    <junction id=":B1_17_0" type="internal" x="149.20" y="156.00" incLanes=":B1_3_0 A1B1_0 B0B1_0 C1B1_0" intLanes=":B1_4_0 :B1_9_0 :B1_14_0"/>
    <junction id=":B1_18_0" type="internal" x="153.20" y="150.96" incLanes=":B1_6_0 A1B1_0" intLanes=":B1_1_0 :B1_2_0 :B1_9_0 :B1_10_0 :B1_11_0 :B1_12_0 :B1_13_0"/>
    <junction id=":B1_19_0" type="internal" x="156.00" y="150.80" incLanes=":B1_7_0 A1B1_0 B0B1_0 B2B1_0" intLanes=":B1_2_0 :B1_8_0 :B1_13_0"/>
    <junction id=":B1_20_0" type="internal" x="150.96" y="146.80" incLanes=":B1_10_0 B2B1_0" intLanes=":B1_0_0 :B1_1_0 :B1_5_0 :B1_6_0 :B1_13_0 :B1_14_0 :B1_15_0"/>
    <junction id=":B1_21_0" type="internal" x="150.80" y="144.00" incLanes=":B1_11_0 A1B1_0 B2B1_0 C1B1_0" intLanes=":B1_1_0 :B1_6_0 :B1_12_0"/>
    <junction id=":B1_22_0" type="internal" x="146.80" y="149.04" incLanes=":B1_14_0 C1B1_0" intLanes=":B1_1_0 :B1_2_0 :B1_3_0 :B1_4_0 :B1_5_0 :B1_9_0 :B1_10_0"/>
    <junction id=":B1_23_0" type="internal" x="144.00" y="149.20" incLanes=":B1_15_0 B0B1_0 B2B1_0 C1B1_0" intLanes=":B1_0_0 :B1_5_0 :B1_10_0"/>

    <connection from="A1B1" to="B1B0" fromLane="0" toLane="0" via=":B1_12_0" tl="B1" linkIndex="12" dir="r" state="o"/>
    <connection from="A1B1" to="B1C1" fromLane="0" toLane="0" via=":B1_13_0" tl="B1" linkIndex="13" dir="s" state="o"/>
    <connection from="A1B1" to="B1B2" fromLane="0" toLane="0" via=":B1_14_0" tl="B1" linkIndex="14" dir="l" state="o"/>
    <connection from="A1B1" to="B1A1" fromLane="0" toLane="0" via=":B1_15_0" tl="B1" linkIndex="15" dir="t" state="o"/>
    <connection from="B0B1" to="B1C1" fromLane="0" toLane="0" via=":B1_8_0" tl="B1" linkIndex="8" dir="r" state="O"/>
    <connection from="B0B1" to="B1B2" fromLane="0" toLane="0" via=":B1_9_0" tl="B1" linkIndex="9" dir="s" state="O"/>
    <connection from="B0B1" to="B1A1" fromLane="0" toLane="0" via=":B1_10_0" tl="B1" linkIndex="10" dir="l" state="o"/>
    <connection from="B0B1" to="B1B0" fromLane="0" toLane="0" via=":B1_11_0" tl="B1" linkIndex="11" dir="t" state="o"/>
    <connection from="B1A1" to="A1B1" fromLane="0" toLane="0" via=":A1_0_0" dir="t" state="M"/>
    <connection from="B1B0" to="B0B1" fromLane="0" toLane="0" via=":B0_0_0" dir="t" state="M"/>
    <connection from="B1B2" to="B2B1" fromLane="0" toLane="0" via=":B2_0_0" dir="t" state="M"/>
    <connection from="B1C1" to="C1B1" fromLane="0" toLane="0" via=":C1_0_0" dir="t" state="M"/>
    <connection from="B2B1" to="B1A1" fromLane="0" toLane="0" via=":B1_0_0" tl="B1" linkIndex="0" dir="r" state="O"/>
    <connection from="B2B1" to="B1B0" fromLane="0" toLane="0" via=":B1_1_0" tl="B1" linkIndex="1" dir="s" state="O"/>
    <connection from="B2B1" to="B1C1" fromLane="0" toLane="0" via=":B1_2_0" tl="B1" linkIndex="2" dir="l" state="o"/>
    <connection from="B2B1" to="B1B2" fromLane="0" toLane="0" via=":B1_3_0" tl="B1" linkIndex="3" dir="t" state="o"/>
    <connection from="C1B1" to="B1B2" fromLane="0" toLane="0" via=":B1_4_0" tl="B1" linkIndex="4" dir="r" state="o"/>
    <connection from="C1B1" to="B1A1" fromLane="0" toLane="0" via=":B1_5_0" tl="B1" linkIndex="5" dir="s" state="o"/>
    <connection from="C1B1" to="B1B0" fromLane="0" toLane="0" via=":B1_6_0" tl="B1" linkIndex="6" dir="l" state="o"/>
    <connection from="C1B1" to="B1C1" fromLane="0" toLane="0" via=":B1_7_0" tl="B1" linkIndex="7" dir="t" state="o"/>

    <connection from=":A1_0" to="A1B1" fromLane="0" toLane="0" dir="t" state="M"/>
    <connection from=":B0_0" to="B0B1" fromLane="0" toLane="0" dir="t" state="M"/>
    <connection from=":B1_0" to="B1A1" fromLane="0" toLane="0" dir="r" state="M"/>
    <connection from=":B1_1" to="B1B0" fromLane="0" toLane="0" dir="s" state="M"/>
    <connection from=":B1_2" to="B1C1" fromLane="0" toLane="0" via=":B1_16_0" dir="l" state="m"/>
    <connection from=":B1_16" to="B1C1" fromLane="0" toLane="0" dir="l" state="M"/>
    <connection from=":B1_3" to="B1B2" fromLane="0" toLane="0" via=":B1_17_0" dir="t" state="m"/>
    <connection from=":B1_17" to="B1B2" fromLane="0" toLane="0" dir="t" state="M"/>
    <connection from=":B1_4" to="B1B2" fromLane="0" toLane="0" dir="r" state="M"/>
    <connection from=":B1_5" to="B1A1" fromLane="0" toLane="0" dir="s" state="M"/>
    <connection from=":B1_6" to="B1B0" fromLane="0" toLane="0" via=":B1_18_0" dir="l" state="m"/>
    <connection from=":B1_18" to="B1B0" fromLane="0" toLane="0" dir="l" state="M"/>
    <connection from=":B1_7" to="B1C1" fromLane="0" toLane="0" via=":B1_19_0" dir="t" state="m"/>
    <connection from=":B1_19" to="B1C1" fromLane="0" toLane="0" dir="t" state="M"/>
    <connection from=":B1_8" to="B1C1" fromLane="0" toLane="0" dir="r" state="M"/>
    <connection from=":B1_9" to="B1B2" fromLane="0" toLane="0" dir="s" state="M"/>
    <connection from=":B1_10" to="B1A1" fromLane="0" toLane="0" via=":B1_20_0" dir="l" state="m"/>
    <connection from=":B1_20" to="B1A1" fromLane="0" toLane="0" dir="l" state="M"/>
    <connection from=":B1_11" to="B1B0" fromLane="0" toLane="0" via=":B1_21_0" dir="t" state="m"/>
    <connection from=":B1_21" to="B1B0" fromLane="0" toLane="0" dir="t" state="M"/>
    <connection from=":B1_12" to="B1B0" fromLane="0" toLane="0" dir="r" state="M"/>
    <connection from=":B1_13" to="B1C1" fromLane="0" toLane="0" dir="s" state="M"/>
    <connection from=":B1_14" to="B1B2" fromLane="0" toLane="0" via=":B1_22_0" dir="l" state="m"/>
    <connection from=":B1_22" to="B1B2" fromLane="0" toLane="0" dir="l" state="M"/>
    <connection from=":B1_15" to="B1A1" fromLane="0" toLane="0" via=":B1_23_0" dir="t" state="m"/>
    <connection from=":B1_23" to="B1A1" fromLane="0" toLane="0" dir="t" state="M"/>
    <connection from=":B2_0" to="B2B1" fromLane="0" toLane="0" dir="t" state="M"/>
    <connection from=":C1_0" to="C1B1" fromLane="0" toLane="0" dir="t" state="M"/>

</net>
